                                  MODFLOW-2005     
      U.S. GEOLOGICAL SURVEY MODULAR FINITE-DIFFERENCE GROUND-WATER FLOW MODEL
                            VERSION 1.12.00 2/3/2017

 LIST FILE: UncXSectPaper.list
                         UNIT    2

 OPENING UncXSectPaper.dis
 FILE TYPE:DIS   UNIT   11   STATUS:OLD    
 FORMAT:FORMATTED              ACCESS:SEQUENTIAL          

 OPENING UncXSectPaper.bas
 FILE TYPE:BAS6   UNIT   13   STATUS:OLD    
 FORMAT:FORMATTED              ACCESS:SEQUENTIAL          

 OPENING UncXSectPaper.lpf
 FILE TYPE:LPF   UNIT   15   STATUS:OLD    
 FORMAT:FORMATTED              ACCESS:SEQUENTIAL          

 OPENING UncXSectPaper.wel
 FILE TYPE:WEL   UNIT   20   STATUS:OLD    
 FORMAT:FORMATTED              ACCESS:SEQUENTIAL          

 OPENING UncXSectPaper.riv
 FILE TYPE:RIV   UNIT   18   STATUS:OLD    
 FORMAT:FORMATTED              ACCESS:SEQUENTIAL          

 OPENING UncXSectPaper.rch
 FILE TYPE:RCH   UNIT   19   STATUS:OLD    
 FORMAT:FORMATTED              ACCESS:SEQUENTIAL          

 OPENING UncXSectPaper.oc
 FILE TYPE:OC   UNIT   14   STATUS:OLD    
 FORMAT:FORMATTED              ACCESS:SEQUENTIAL          

 OPENING UncXSectPaper.pcg
 FILE TYPE:PCG   UNIT   27   STATUS:OLD    
 FORMAT:FORMATTED              ACCESS:SEQUENTIAL          

 OPENING UncXSectPaper.cbc
 FILE TYPE:DATA(BINARY)   UNIT   53   STATUS:REPLACE
 FORMAT:UNFORMATTED            ACCESS:STREAM              

 OPENING UncXSectPaper.hds
 FILE TYPE:DATA(BINARY)   UNIT   51   STATUS:REPLACE
 FORMAT:UNFORMATTED            ACCESS:STREAM              

 OPENING UncXSectPaper.ddn
 FILE TYPE:DATA(BINARY)   UNIT   52   STATUS:REPLACE
 FORMAT:UNFORMATTED            ACCESS:STREAM              

 BAS -- BASIC PACKAGE, VERSION 7, 5/2/2005 INPUT READ FROM UNIT   13

 MODFLOW was compiled using mixed precision
 Precision of REAL variables:           6
 Precision of DOUBLE PRECISION variables:          15

 DISCRETIZATION INPUT DATA READ FROM UNIT   11
 # DIS package for MODFLOW-2005 generated by Flopy 3.4.1
   19 LAYERS         1 ROWS        33 COLUMNS
    1 STRESS PERIOD(S) IN SIMULATION
 MODEL TIME UNIT IS DAYS
 MODEL LENGTH UNIT IS METERS
  Confining bed flag for each layer:
   0   0   0   0   0   0   0   0   0   0   0   0   0   0   0   0   0   0   0

                     DELR =   10.0000    

                     DELC =   10.0000    



           TOP ELEVATION OF LAYER 1
 READING ON UNIT   11 WITH FORMAT: (33E15.6)           



             MODEL LAYER BOTTOM EL. FOR LAYER   1
 READING ON UNIT   11 WITH FORMAT: (33E15.6)           



             MODEL LAYER BOTTOM EL. FOR LAYER   2
 READING ON UNIT   11 WITH FORMAT: (33E15.6)           



             MODEL LAYER BOTTOM EL. FOR LAYER   3
 READING ON UNIT   11 WITH FORMAT: (33E15.6)           



             MODEL LAYER BOTTOM EL. FOR LAYER   4
 READING ON UNIT   11 WITH FORMAT: (33E15.6)           



             MODEL LAYER BOTTOM EL. FOR LAYER   5
 READING ON UNIT   11 WITH FORMAT: (33E15.6)           



             MODEL LAYER BOTTOM EL. FOR LAYER   6
 READING ON UNIT   11 WITH FORMAT: (33E15.6)           



             MODEL LAYER BOTTOM EL. FOR LAYER   7
 READING ON UNIT   11 WITH FORMAT: (33E15.6)           



             MODEL LAYER BOTTOM EL. FOR LAYER   8
 READING ON UNIT   11 WITH FORMAT: (33E15.6)           



             MODEL LAYER BOTTOM EL. FOR LAYER   9
 READING ON UNIT   11 WITH FORMAT: (33E15.6)           



             MODEL LAYER BOTTOM EL. FOR LAYER  10
 READING ON UNIT   11 WITH FORMAT: (33E15.6)           



             MODEL LAYER BOTTOM EL. FOR LAYER  11
 READING ON UNIT   11 WITH FORMAT: (33E15.6)           



             MODEL LAYER BOTTOM EL. FOR LAYER  12
 READING ON UNIT   11 WITH FORMAT: (33E15.6)           



             MODEL LAYER BOTTOM EL. FOR LAYER  13
 READING ON UNIT   11 WITH FORMAT: (33E15.6)           



             MODEL LAYER BOTTOM EL. FOR LAYER  14
 READING ON UNIT   11 WITH FORMAT: (33E15.6)           



             MODEL LAYER BOTTOM EL. FOR LAYER  15
 READING ON UNIT   11 WITH FORMAT: (33E15.6)           



             MODEL LAYER BOTTOM EL. FOR LAYER  16
 READING ON UNIT   11 WITH FORMAT: (33E15.6)           



             MODEL LAYER BOTTOM EL. FOR LAYER  17
 READING ON UNIT   11 WITH FORMAT: (33E15.6)           



             MODEL LAYER BOTTOM EL. FOR LAYER  18
 READING ON UNIT   11 WITH FORMAT: (33E15.6)           



             MODEL LAYER BOTTOM EL. FOR LAYER  19
 READING ON UNIT   11 WITH FORMAT: (33E15.6)           


 STRESS PERIOD     LENGTH       TIME STEPS     MULTIPLIER FOR DELT    SS FLAG
 ----------------------------------------------------------------------------
        1         1.000000          1                    1.000         SS

 STEADY-STATE SIMULATION




 # BAS6 package for MODFLOW-2005 generated by Flopy 3.4.1                        
 THE FREE FORMAT OPTION HAS BEEN SELECTED



                     BOUNDARY ARRAY FOR LAYER   1
 READING ON UNIT   13 WITH FORMAT: (33I10)             



                     BOUNDARY ARRAY FOR LAYER   2
 READING ON UNIT   13 WITH FORMAT: (33I10)             



                     BOUNDARY ARRAY FOR LAYER   3
 READING ON UNIT   13 WITH FORMAT: (33I10)             



                     BOUNDARY ARRAY FOR LAYER   4
 READING ON UNIT   13 WITH FORMAT: (33I10)             



                     BOUNDARY ARRAY FOR LAYER   5
 READING ON UNIT   13 WITH FORMAT: (33I10)             



                     BOUNDARY ARRAY FOR LAYER   6
 READING ON UNIT   13 WITH FORMAT: (33I10)             



                     BOUNDARY ARRAY FOR LAYER   7
 READING ON UNIT   13 WITH FORMAT: (33I10)             



                     BOUNDARY ARRAY FOR LAYER   8
 READING ON UNIT   13 WITH FORMAT: (33I10)             



                     BOUNDARY ARRAY FOR LAYER   9
 READING ON UNIT   13 WITH FORMAT: (33I10)             



                     BOUNDARY ARRAY FOR LAYER  10
 READING ON UNIT   13 WITH FORMAT: (33I10)             



                     BOUNDARY ARRAY FOR LAYER  11
 READING ON UNIT   13 WITH FORMAT: (33I10)             



                     BOUNDARY ARRAY FOR LAYER  12
 READING ON UNIT   13 WITH FORMAT: (33I10)             



                     BOUNDARY ARRAY FOR LAYER  13
 READING ON UNIT   13 WITH FORMAT: (33I10)             



                     BOUNDARY ARRAY FOR LAYER  14
 READING ON UNIT   13 WITH FORMAT: (33I10)             



                     BOUNDARY ARRAY FOR LAYER  15
 READING ON UNIT   13 WITH FORMAT: (33I10)             



                     BOUNDARY ARRAY FOR LAYER  16
 READING ON UNIT   13 WITH FORMAT: (33I10)             



                     BOUNDARY ARRAY FOR LAYER  17
 READING ON UNIT   13 WITH FORMAT: (33I10)             



                     BOUNDARY ARRAY FOR LAYER  18
 READING ON UNIT   13 WITH FORMAT: (33I10)             



                     BOUNDARY ARRAY FOR LAYER  19
 READING ON UNIT   13 WITH FORMAT: (33I10)             

 AQUIFER HEAD WILL BE SET TO  -99.000     AT ALL NO-FLOW NODES (IBOUND=0).

             INITIAL HEAD =   72.0000     FOR LAYER   1

             INITIAL HEAD =   72.0000     FOR LAYER   2

             INITIAL HEAD =   72.0000     FOR LAYER   3

             INITIAL HEAD =   72.0000     FOR LAYER   4

             INITIAL HEAD =   72.0000     FOR LAYER   5

             INITIAL HEAD =   72.0000     FOR LAYER   6

             INITIAL HEAD =   72.0000     FOR LAYER   7

             INITIAL HEAD =   72.0000     FOR LAYER   8

             INITIAL HEAD =   72.0000     FOR LAYER   9

             INITIAL HEAD =   72.0000     FOR LAYER  10

             INITIAL HEAD =   72.0000     FOR LAYER  11

             INITIAL HEAD =   72.0000     FOR LAYER  12

             INITIAL HEAD =   72.0000     FOR LAYER  13

             INITIAL HEAD =   72.0000     FOR LAYER  14

             INITIAL HEAD =   72.0000     FOR LAYER  15

             INITIAL HEAD =   72.0000     FOR LAYER  16

             INITIAL HEAD =   72.0000     FOR LAYER  17

             INITIAL HEAD =   72.0000     FOR LAYER  18

             INITIAL HEAD =   72.0000     FOR LAYER  19
 # OC package for MODFLOW-2005 generated by Flopy 3.4.1

 OUTPUT CONTROL IS SPECIFIED ONLY AT TIME STEPS FOR WHICH OUTPUT IS DESIRED
 COMPACT CELL-BY-CELL BUDGET FILES WILL BE WRITTEN
 AUXILIARY DATA WILL BE SAVED IN CELL-BY-CELL BUDGET FILES
 HEAD PRINT FORMAT CODE IS   0    DRAWDOWN PRINT FORMAT CODE IS   0
 HEADS WILL BE SAVED ON UNIT   51    DRAWDOWNS WILL BE SAVED ON UNIT   52

 LPF -- LAYER-PROPERTY FLOW PACKAGE, VERSION 7, 5/2/2005
         INPUT READ FROM UNIT   15
 # LPF package for MODFLOW-2005 generated by Flopy 3.4.1
 CELL-BY-CELL FLOWS WILL BE SAVED ON UNIT   53
 HEAD AT CELLS THAT CONVERT TO DRY= -1.00000E+30
 No named parameters

   LAYER FLAGS:
 LAYER       LAYTYP        LAYAVG         CHANI        LAYVKA        LAYWET
 ---------------------------------------------------------------------------
    1             1             0     1.000E+00             0             1
    2             1             0     1.000E+00             0             1
    3             1             0     1.000E+00             0             1
    4             1             0     1.000E+00             0             1
    5             1             0     1.000E+00             0             1
    6             1             0     1.000E+00             0             1
    7             1             0     1.000E+00             0             1
    8             1             0     1.000E+00             0             1
    9             1             0     1.000E+00             0             1
   10             1             0     1.000E+00             0             1
   11             1             0     1.000E+00             0             1
   12             1             0     1.000E+00             0             1
   13             1             0     1.000E+00             0             1
   14             1             0     1.000E+00             0             1
   15             1             0     1.000E+00             0             1
   16             1             0     1.000E+00             0             1
   17             1             0     1.000E+00             0             1
   18             1             0     1.000E+00             0             1
   19             1             0     1.000E+00             0             1

   INTERPRETATION OF LAYER FLAGS:
                        INTERBLOCK     HORIZONTAL    DATA IN
         LAYER TYPE   TRANSMISSIVITY   ANISOTROPY   ARRAY VKA   WETTABILITY
 LAYER      (LAYTYP)      (LAYAVG)       (CHANI)      (LAYVKA)      (LAYWET)
 ---------------------------------------------------------------------------
    1   CONVERTIBLE      HARMONIC     1.000E+00    VERTICAL K      WETTABLE
    2   CONVERTIBLE      HARMONIC     1.000E+00    VERTICAL K      WETTABLE
    3   CONVERTIBLE      HARMONIC     1.000E+00    VERTICAL K      WETTABLE
    4   CONVERTIBLE      HARMONIC     1.000E+00    VERTICAL K      WETTABLE
    5   CONVERTIBLE      HARMONIC     1.000E+00    VERTICAL K      WETTABLE
    6   CONVERTIBLE      HARMONIC     1.000E+00    VERTICAL K      WETTABLE
    7   CONVERTIBLE      HARMONIC     1.000E+00    VERTICAL K      WETTABLE
    8   CONVERTIBLE      HARMONIC     1.000E+00    VERTICAL K      WETTABLE
    9   CONVERTIBLE      HARMONIC     1.000E+00    VERTICAL K      WETTABLE
   10   CONVERTIBLE      HARMONIC     1.000E+00    VERTICAL K      WETTABLE
   11   CONVERTIBLE      HARMONIC     1.000E+00    VERTICAL K      WETTABLE
   12   CONVERTIBLE      HARMONIC     1.000E+00    VERTICAL K      WETTABLE
   13   CONVERTIBLE      HARMONIC     1.000E+00    VERTICAL K      WETTABLE
   14   CONVERTIBLE      HARMONIC     1.000E+00    VERTICAL K      WETTABLE
   15   CONVERTIBLE      HARMONIC     1.000E+00    VERTICAL K      WETTABLE
   16   CONVERTIBLE      HARMONIC     1.000E+00    VERTICAL K      WETTABLE
   17   CONVERTIBLE      HARMONIC     1.000E+00    VERTICAL K      WETTABLE
   18   CONVERTIBLE      HARMONIC     1.000E+00    VERTICAL K      WETTABLE
   19   CONVERTIBLE      HARMONIC     1.000E+00    VERTICAL K      WETTABLE

 WETTING CAPABILITY IS ACTIVE IN  19 LAYERS
  WETTING FACTOR=  0.100000001    
  WETTING ITERATION INTERVAL=           1
  IHDWET=           0



              HYD. COND. ALONG ROWS FOR LAYER   1
 READING ON UNIT   15 WITH FORMAT: (33E15.6)           



                VERTICAL HYD. COND. FOR LAYER   1
 READING ON UNIT   15 WITH FORMAT: (33E15.6)           

         WETDRY PARAMETER =   1.00000     FOR LAYER   1



              HYD. COND. ALONG ROWS FOR LAYER   2
 READING ON UNIT   15 WITH FORMAT: (33E15.6)           



                VERTICAL HYD. COND. FOR LAYER   2
 READING ON UNIT   15 WITH FORMAT: (33E15.6)           

         WETDRY PARAMETER =   1.00000     FOR LAYER   2



              HYD. COND. ALONG ROWS FOR LAYER   3
 READING ON UNIT   15 WITH FORMAT: (33E15.6)           



                VERTICAL HYD. COND. FOR LAYER   3
 READING ON UNIT   15 WITH FORMAT: (33E15.6)           

         WETDRY PARAMETER =   1.00000     FOR LAYER   3



              HYD. COND. ALONG ROWS FOR LAYER   4
 READING ON UNIT   15 WITH FORMAT: (33E15.6)           



                VERTICAL HYD. COND. FOR LAYER   4
 READING ON UNIT   15 WITH FORMAT: (33E15.6)           

         WETDRY PARAMETER =   1.00000     FOR LAYER   4



              HYD. COND. ALONG ROWS FOR LAYER   5
 READING ON UNIT   15 WITH FORMAT: (33E15.6)           



                VERTICAL HYD. COND. FOR LAYER   5
 READING ON UNIT   15 WITH FORMAT: (33E15.6)           

         WETDRY PARAMETER =   1.00000     FOR LAYER   5



              HYD. COND. ALONG ROWS FOR LAYER   6
 READING ON UNIT   15 WITH FORMAT: (33E15.6)           



                VERTICAL HYD. COND. FOR LAYER   6
 READING ON UNIT   15 WITH FORMAT: (33E15.6)           

         WETDRY PARAMETER =   1.00000     FOR LAYER   6



              HYD. COND. ALONG ROWS FOR LAYER   7
 READING ON UNIT   15 WITH FORMAT: (33E15.6)           



                VERTICAL HYD. COND. FOR LAYER   7
 READING ON UNIT   15 WITH FORMAT: (33E15.6)           

         WETDRY PARAMETER =   1.00000     FOR LAYER   7



              HYD. COND. ALONG ROWS FOR LAYER   8
 READING ON UNIT   15 WITH FORMAT: (33E15.6)           



                VERTICAL HYD. COND. FOR LAYER   8
 READING ON UNIT   15 WITH FORMAT: (33E15.6)           

         WETDRY PARAMETER =   1.00000     FOR LAYER   8



              HYD. COND. ALONG ROWS FOR LAYER   9
 READING ON UNIT   15 WITH FORMAT: (33E15.6)           



                VERTICAL HYD. COND. FOR LAYER   9
 READING ON UNIT   15 WITH FORMAT: (33E15.6)           

         WETDRY PARAMETER =   1.00000     FOR LAYER   9



              HYD. COND. ALONG ROWS FOR LAYER  10
 READING ON UNIT   15 WITH FORMAT: (33E15.6)           



                VERTICAL HYD. COND. FOR LAYER  10
 READING ON UNIT   15 WITH FORMAT: (33E15.6)           

         WETDRY PARAMETER =   1.00000     FOR LAYER  10



              HYD. COND. ALONG ROWS FOR LAYER  11
 READING ON UNIT   15 WITH FORMAT: (33E15.6)           



                VERTICAL HYD. COND. FOR LAYER  11
 READING ON UNIT   15 WITH FORMAT: (33E15.6)           

         WETDRY PARAMETER =   1.00000     FOR LAYER  11



              HYD. COND. ALONG ROWS FOR LAYER  12
 READING ON UNIT   15 WITH FORMAT: (33E15.6)           



                VERTICAL HYD. COND. FOR LAYER  12
 READING ON UNIT   15 WITH FORMAT: (33E15.6)           

         WETDRY PARAMETER =   1.00000     FOR LAYER  12



              HYD. COND. ALONG ROWS FOR LAYER  13
 READING ON UNIT   15 WITH FORMAT: (33E15.6)           



                VERTICAL HYD. COND. FOR LAYER  13
 READING ON UNIT   15 WITH FORMAT: (33E15.6)           

         WETDRY PARAMETER =   1.00000     FOR LAYER  13



              HYD. COND. ALONG ROWS FOR LAYER  14
 READING ON UNIT   15 WITH FORMAT: (33E15.6)           



                VERTICAL HYD. COND. FOR LAYER  14
 READING ON UNIT   15 WITH FORMAT: (33E15.6)           

         WETDRY PARAMETER =   1.00000     FOR LAYER  14



              HYD. COND. ALONG ROWS FOR LAYER  15
 READING ON UNIT   15 WITH FORMAT: (33E15.6)           



                VERTICAL HYD. COND. FOR LAYER  15
 READING ON UNIT   15 WITH FORMAT: (33E15.6)           

         WETDRY PARAMETER =   1.00000     FOR LAYER  15



              HYD. COND. ALONG ROWS FOR LAYER  16
 READING ON UNIT   15 WITH FORMAT: (33E15.6)           



                VERTICAL HYD. COND. FOR LAYER  16
 READING ON UNIT   15 WITH FORMAT: (33E15.6)           

         WETDRY PARAMETER =   1.00000     FOR LAYER  16



              HYD. COND. ALONG ROWS FOR LAYER  17
 READING ON UNIT   15 WITH FORMAT: (33E15.6)           



                VERTICAL HYD. COND. FOR LAYER  17
 READING ON UNIT   15 WITH FORMAT: (33E15.6)           

         WETDRY PARAMETER =   1.00000     FOR LAYER  17



              HYD. COND. ALONG ROWS FOR LAYER  18
 READING ON UNIT   15 WITH FORMAT: (33E15.6)           



                VERTICAL HYD. COND. FOR LAYER  18
 READING ON UNIT   15 WITH FORMAT: (33E15.6)           

         WETDRY PARAMETER =   1.00000     FOR LAYER  18



              HYD. COND. ALONG ROWS FOR LAYER  19
 READING ON UNIT   15 WITH FORMAT: (33E15.6)           



                VERTICAL HYD. COND. FOR LAYER  19
 READING ON UNIT   15 WITH FORMAT: (33E15.6)           

         WETDRY PARAMETER =   1.00000     FOR LAYER  19
 NODE (LAYER,ROW,COL)  19     1    24 ELIMINATED BECAUSE ALL HYDRAULIC
 CONDUCTIVITIES TO NODE ARE 0

 WEL -- WELL PACKAGE, VERSION 7, 5/2/2005 INPUT READ FROM UNIT   20
 # WEL package for MODFLOW-2005 generated by Flopy 3.4.1
 No named parameters
 MAXIMUM OF      7 ACTIVE WELLS AT ONE TIME


     0 Well parameters

 RIV -- RIVER PACKAGE, VERSION 7, 5/2/2005 INPUT READ FROM UNIT   18
 # RIV package for MODFLOW-2005 generated by Flopy 3.4.1
 No named parameters
 MAXIMUM OF      3 ACTIVE RIVER REACHES AT ONE TIME


     0 River parameters

 RCH -- RECHARGE PACKAGE, VERSION 7, 5/2/2005 INPUT READ FROM UNIT   19
 # RCH package for MODFLOW-2005 generated by Flopy 3.4.1
 No named parameters
 OPTION 3 -- RECHARGE TO HIGHEST ACTIVE NODE IN EACH VERTICAL COLUMN


     0 Recharge parameters

 PCG -- CONJUGATE-GRADIENT SOLUTION PACKAGE, VERSION 7, 5/2/2005
 # PCG package for MODFLOW-2005 generated by Flopy 3.4.1
 MAXIMUM OF     50 CALLS OF SOLUTION ROUTINE
 MAXIMUM OF     30 INTERNAL ITERATIONS PER CALL TO SOLUTION ROUTINE
 MATRIX PRECONDITIONING TYPE :    1



                                    SOLUTION BY THE CONJUGATE-GRADIENT METHOD
                                   -------------------------------------------
                    MAXIMUM NUMBER OF CALLS TO PCG ROUTINE =       50
                        MAXIMUM ITERATIONS PER CALL TO PCG =       30
                               MATRIX PRECONDITIONING TYPE =        1
        RELAXATION FACTOR (ONLY USED WITH PRECOND. TYPE 1) =    0.10000E+01
 PARAMETER OF POLYNOMIAL PRECOND. = 2 (2) OR IS CALCULATED :        0
                         HEAD CHANGE CRITERION FOR CLOSURE =    0.10000E-06
                     RESIDUAL CHANGE CRITERION FOR CLOSURE =    0.10000E-04
            PCG HEAD AND RESIDUAL CHANGE PRINTOUT INTERVAL =      999
     PRINTING FROM SOLVER IS LIMITED(1) OR SUPPRESSED (>1) =        3
                            STEADY-STATE DAMPING PARAMETER =    0.10000E+01
                               TRANSIENT DAMPING PARAMETER =    0.10000E+01
1
                            STRESS PERIOD NO.    1, LENGTH =   1.000000    
                            -----------------------------------------------

                              NUMBER OF TIME STEPS =     1

                               MULTIPLIER FOR DELT =     1.000

                            INITIAL TIME STEP SIZE =   1.000000    

 WELL NO.  LAYER   ROW   COL   STRESS RATE         
 --------------------------------------------------
      1     10      1      9      -5000.    
      2     11      1      9      -5000.    
      3     12      1      9      -5000.    
      4     13      1      9      -5000.    
      5     14      1      9      -5000.    
      6     15      1      9      -5000.    
      7     16      1      9      -5000.    

      7 WELLS

 REACH NO.  LAYER   ROW   COL     STAGE      CONDUCTANCE     BOTTOM EL.         
 -------------------------------------------------------------------------------
      1      7      1     15       62.00           100.0           58.00    
      2      7      1     16       62.00           100.0           58.00    
      3      7      1     17       62.00           100.0           58.00    

      3 RIVER REACHES

                 RECHARGE =  1.000000E-03

 SOLVING FOR HEAD 

 CELL CONVERSIONS FOR ITER.=  1  LAYER=  1  STEP=  1  PERIOD=   1   (ROW,COL)
    DRY(  1,  1)   DRY(  1, 33)   

 CELL CONVERSIONS FOR ITER.=  1  LAYER=  2  STEP=  1  PERIOD=   1   (ROW,COL)
    DRY(  1,  1)   DRY(  1,  2)   DRY(  1,  3)   DRY(  1,  4)   DRY(  1,  5)   
    DRY(  1,  6)   DRY(  1,  7)   DRY(  1,  8)   DRY(  1, 24)   DRY(  1, 25)   
    DRY(  1, 26)   DRY(  1, 27)   DRY(  1, 28)   DRY(  1, 29)   DRY(  1, 30)   
    DRY(  1, 31)   DRY(  1, 32)   DRY(  1, 33)   

 CELL CONVERSIONS FOR ITER.=  1  LAYER=  3  STEP=  1  PERIOD=   1   (ROW,COL)
    DRY(  1,  1)   DRY(  1,  2)   DRY(  1,  3)   DRY(  1,  4)   DRY(  1,  5)   
    DRY(  1,  6)   DRY(  1,  7)   DRY(  1,  8)   DRY(  1,  9)   DRY(  1, 10)   
    DRY(  1, 22)   DRY(  1, 23)   DRY(  1, 24)   DRY(  1, 25)   DRY(  1, 26)   
    DRY(  1, 27)   DRY(  1, 28)   DRY(  1, 29)   DRY(  1, 30)   DRY(  1, 31)   
    DRY(  1, 32)   DRY(  1, 33)   

 CELL CONVERSIONS FOR ITER.=  1  LAYER=  4  STEP=  1  PERIOD=   1   (ROW,COL)
    DRY(  1,  1)   DRY(  1,  2)   DRY(  1,  3)   DRY(  1,  4)   DRY(  1,  5)   
    DRY(  1,  6)   DRY(  1,  7)   DRY(  1,  8)   DRY(  1,  9)   DRY(  1, 10)   
    DRY(  1, 11)   DRY(  1, 12)   DRY(  1, 13)   DRY(  1, 14)   DRY(  1, 18)   
    DRY(  1, 19)   DRY(  1, 20)   DRY(  1, 21)   DRY(  1, 22)   DRY(  1, 23)   
    DRY(  1, 24)   DRY(  1, 25)   DRY(  1, 26)   DRY(  1, 27)   DRY(  1, 28)   
    DRY(  1, 29)   DRY(  1, 30)   DRY(  1, 31)   DRY(  1, 32)   DRY(  1, 33)   

 CELL CONVERSIONS FOR ITER.=  1  LAYER=  5  STEP=  1  PERIOD=   1   (ROW,COL)
    WET(  1, 15)   WET(  1, 17)   

 CELL CONVERSIONS FOR ITER.=  1  LAYER=  6  STEP=  1  PERIOD=   1   (ROW,COL)
    WET(  1, 15)   WET(  1, 16)   WET(  1, 17)   

 CELL CONVERSIONS FOR ITER.=  1  LAYER= 17  STEP=  1  PERIOD=   1   (ROW,COL)
    WET(  1,  8)   

 CELL CONVERSIONS FOR ITER.=  1  LAYER= 18  STEP=  1  PERIOD=   1   (ROW,COL)
    WET(  1, 16)   

 ISOLATED CELL IS BEING ELIMINATED (LAYER,ROW,COL):    17     1     8
 (PCG7AP)

 ISOLATED CELL IS BEING ELIMINATED (LAYER,ROW,COL):    18     1    16
 (PCG7AP)

 CELL CONVERSIONS FOR ITER.=  2  LAYER=  5  STEP=  1  PERIOD=   1   (ROW,COL)
    WET(  1, 16)   DRY(  1,  7)   DRY(  1,  8)   DRY(  1,  9)   DRY(  1, 10)   
    DRY(  1, 11)   DRY(  1, 12)   DRY(  1, 13)   DRY(  1, 14)   DRY(  1, 18)   
    DRY(  1, 19)   DRY(  1, 20)   DRY(  1, 21)   DRY(  1, 22)   DRY(  1, 23)   
    DRY(  1, 24)   

 CELL CONVERSIONS FOR ITER.=  2  LAYER= 17  STEP=  1  PERIOD=   1   (ROW,COL)
    WET(  1,  8)   

 CELL CONVERSIONS FOR ITER.=  2  LAYER= 18  STEP=  1  PERIOD=   1   (ROW,COL)
    WET(  1, 16)   

 ISOLATED CELL IS BEING ELIMINATED (LAYER,ROW,COL):    17     1     8
 (PCG7AP)

 ISOLATED CELL IS BEING ELIMINATED (LAYER,ROW,COL):    18     1    16
 (PCG7AP)

 CELL CONVERSIONS FOR ITER.=  3  LAYER= 17  STEP=  1  PERIOD=   1   (ROW,COL)
    WET(  1,  8)   

 CELL CONVERSIONS FOR ITER.=  3  LAYER= 18  STEP=  1  PERIOD=   1   (ROW,COL)
    WET(  1, 16)   

 ISOLATED CELL IS BEING ELIMINATED (LAYER,ROW,COL):    17     1     8
 (PCG7AP)

 ISOLATED CELL IS BEING ELIMINATED (LAYER,ROW,COL):    18     1    16
 (PCG7AP)

 CELL CONVERSIONS FOR ITER.=  4  LAYER=  5  STEP=  1  PERIOD=   1   (ROW,COL)
    DRY(  1, 15)   DRY(  1, 16)   DRY(  1, 17)   

 CELL CONVERSIONS FOR ITER.=  4  LAYER= 17  STEP=  1  PERIOD=   1   (ROW,COL)
    WET(  1,  8)   

 CELL CONVERSIONS FOR ITER.=  4  LAYER= 18  STEP=  1  PERIOD=   1   (ROW,COL)
    WET(  1, 16)   

 ISOLATED CELL IS BEING ELIMINATED (LAYER,ROW,COL):    17     1     8
 (PCG7AP)

 ISOLATED CELL IS BEING ELIMINATED (LAYER,ROW,COL):    18     1    16
 (PCG7AP)

 CELL CONVERSIONS FOR ITER.=  5  LAYER= 17  STEP=  1  PERIOD=   1   (ROW,COL)
    WET(  1,  8)   

 CELL CONVERSIONS FOR ITER.=  5  LAYER= 18  STEP=  1  PERIOD=   1   (ROW,COL)
    WET(  1, 16)   

 ISOLATED CELL IS BEING ELIMINATED (LAYER,ROW,COL):    17     1     8
 (PCG7AP)

 ISOLATED CELL IS BEING ELIMINATED (LAYER,ROW,COL):    18     1    16
 (PCG7AP)

 CELL CONVERSIONS FOR ITER.=  6  LAYER= 17  STEP=  1  PERIOD=   1   (ROW,COL)
    WET(  1,  8)   

 CELL CONVERSIONS FOR ITER.=  6  LAYER= 18  STEP=  1  PERIOD=   1   (ROW,COL)
    WET(  1, 16)   

 ISOLATED CELL IS BEING ELIMINATED (LAYER,ROW,COL):    17     1     8
 (PCG7AP)

 ISOLATED CELL IS BEING ELIMINATED (LAYER,ROW,COL):    18     1    16
 (PCG7AP)

 CELL CONVERSIONS FOR ITER.=  7  LAYER= 17  STEP=  1  PERIOD=   1   (ROW,COL)
    WET(  1,  8)   

 CELL CONVERSIONS FOR ITER.=  7  LAYER= 18  STEP=  1  PERIOD=   1   (ROW,COL)
    WET(  1, 16)   

 ISOLATED CELL IS BEING ELIMINATED (LAYER,ROW,COL):    17     1     8
 (PCG7AP)

 ISOLATED CELL IS BEING ELIMINATED (LAYER,ROW,COL):    18     1    16
 (PCG7AP)

 CELL CONVERSIONS FOR ITER.=  8  LAYER= 17  STEP=  1  PERIOD=   1   (ROW,COL)
    WET(  1,  8)   

 CELL CONVERSIONS FOR ITER.=  8  LAYER= 18  STEP=  1  PERIOD=   1   (ROW,COL)
    WET(  1, 16)   

 ISOLATED CELL IS BEING ELIMINATED (LAYER,ROW,COL):    17     1     8
 (PCG7AP)

 ISOLATED CELL IS BEING ELIMINATED (LAYER,ROW,COL):    18     1    16
 (PCG7AP)

 CELL CONVERSIONS FOR ITER.=  9  LAYER= 17  STEP=  1  PERIOD=   1   (ROW,COL)
    WET(  1,  8)   

 CELL CONVERSIONS FOR ITER.=  9  LAYER= 18  STEP=  1  PERIOD=   1   (ROW,COL)
    WET(  1, 16)   

 ISOLATED CELL IS BEING ELIMINATED (LAYER,ROW,COL):    17     1     8
 (PCG7AP)

 ISOLATED CELL IS BEING ELIMINATED (LAYER,ROW,COL):    18     1    16
 (PCG7AP)

 CELL CONVERSIONS FOR ITER.= 10  LAYER= 17  STEP=  1  PERIOD=   1   (ROW,COL)
    WET(  1,  8)   

 CELL CONVERSIONS FOR ITER.= 10  LAYER= 18  STEP=  1  PERIOD=   1   (ROW,COL)
    WET(  1, 16)   

 ISOLATED CELL IS BEING ELIMINATED (LAYER,ROW,COL):    17     1     8
 (PCG7AP)

 ISOLATED CELL IS BEING ELIMINATED (LAYER,ROW,COL):    18     1    16
 (PCG7AP)

 OUTPUT CONTROL FOR STRESS PERIOD    1   TIME STEP    1
    SAVE HEAD FOR ALL LAYERS
    SAVE DRAWDOWN FOR ALL LAYERS
    SAVE BUDGET
    PRINT HEAD FOR ALL LAYERS
    PRINT BUDGET
 UBDSV2 SAVING "   CONSTANT HEAD" ON UNIT  53 AT TIME STEP  1, STRESS PERIOD   1
 UBDSV1 SAVING "FLOW RIGHT FACE " ON UNIT  53 AT TIME STEP  1, STRESS PERIOD   1
 UBDSV1 SAVING "FLOW LOWER FACE " ON UNIT  53 AT TIME STEP  1, STRESS PERIOD   1
1
              HEAD IN LAYER   1 AT END OF TIME STEP   1 IN STRESS PERIOD    1
  ---------------------------------------------------------------------------

            1           2           3           4           5           6           7           8           9          10
           11          12          13          14          15          16          17          18          19          20
           21          22          23          24          25          26          27          28          29          30
           31          32          33
 ........................................................................................................................
   1  -1.0000E+30  -99.00      -99.00      -99.00      -99.00      -99.00      -99.00      -99.00      -99.00      -99.00    
       -99.00      -99.00      -99.00      -99.00      -99.00      -99.00      -99.00      -99.00      -99.00      -99.00    
       -99.00      -99.00      -99.00      -99.00      -99.00      -99.00      -99.00      -99.00      -99.00      -99.00    
       -99.00      -99.00     -1.0000E+30
1
              HEAD IN LAYER   2 AT END OF TIME STEP   1 IN STRESS PERIOD    1
  ---------------------------------------------------------------------------

            1           2           3           4           5           6           7           8           9          10
           11          12          13          14          15          16          17          18          19          20
           21          22          23          24          25          26          27          28          29          30
           31          32          33
 ........................................................................................................................
   1  -1.0000E+30 -1.0000E+30 -1.0000E+30 -1.0000E+30 -1.0000E+30 -1.0000E+30 -1.0000E+30 -1.0000E+30  -99.00      -99.00    
       -99.00      -99.00      -99.00      -99.00      -99.00      -99.00      -99.00      -99.00      -99.00      -99.00    
       -99.00      -99.00      -99.00     -1.0000E+30 -1.0000E+30 -1.0000E+30 -1.0000E+30 -1.0000E+30 -1.0000E+30 -1.0000E+30
      -1.0000E+30 -1.0000E+30 -1.0000E+30
1
              HEAD IN LAYER   3 AT END OF TIME STEP   1 IN STRESS PERIOD    1
  ---------------------------------------------------------------------------

            1           2           3           4           5           6           7           8           9          10
           11          12          13          14          15          16          17          18          19          20
           21          22          23          24          25          26          27          28          29          30
           31          32          33
 ........................................................................................................................
   1  -1.0000E+30 -1.0000E+30 -1.0000E+30 -1.0000E+30 -1.0000E+30 -1.0000E+30 -1.0000E+30 -1.0000E+30 -1.0000E+30 -1.0000E+30
       -99.00      -99.00      -99.00      -99.00      -99.00      -99.00      -99.00      -99.00      -99.00      -99.00    
       -99.00     -1.0000E+30 -1.0000E+30 -1.0000E+30 -1.0000E+30 -1.0000E+30 -1.0000E+30 -1.0000E+30 -1.0000E+30 -1.0000E+30
      -1.0000E+30 -1.0000E+30 -1.0000E+30
1
              HEAD IN LAYER   4 AT END OF TIME STEP   1 IN STRESS PERIOD    1
  ---------------------------------------------------------------------------

            1           2           3           4           5           6           7           8           9          10
           11          12          13          14          15          16          17          18          19          20
           21          22          23          24          25          26          27          28          29          30
           31          32          33
 ........................................................................................................................
   1  -1.0000E+30 -1.0000E+30 -1.0000E+30 -1.0000E+30 -1.0000E+30 -1.0000E+30 -1.0000E+30 -1.0000E+30 -1.0000E+30 -1.0000E+30
      -1.0000E+30 -1.0000E+30 -1.0000E+30 -1.0000E+30  -99.00      -99.00      -99.00     -1.0000E+30 -1.0000E+30 -1.0000E+30
      -1.0000E+30 -1.0000E+30 -1.0000E+30 -1.0000E+30 -1.0000E+30 -1.0000E+30 -1.0000E+30 -1.0000E+30 -1.0000E+30 -1.0000E+30
      -1.0000E+30 -1.0000E+30 -1.0000E+30
1
              HEAD IN LAYER   5 AT END OF TIME STEP   1 IN STRESS PERIOD    1
  ---------------------------------------------------------------------------

            1           2           3           4           5           6           7           8           9          10
           11          12          13          14          15          16          17          18          19          20
           21          22          23          24          25          26          27          28          29          30
           31          32          33
 ........................................................................................................................
   1    72.00       71.67       71.32       70.96       70.60       70.24     -1.0000E+30 -1.0000E+30 -1.0000E+30 -1.0000E+30
      -1.0000E+30 -1.0000E+30 -1.0000E+30 -1.0000E+30 -1.0000E+30 -1.0000E+30 -1.0000E+30 -1.0000E+30 -1.0000E+30 -1.0000E+30
      -1.0000E+30 -1.0000E+30 -1.0000E+30 -1.0000E+30   70.21       70.44       70.67       70.90       71.13       71.36    
        71.58       71.79       72.00    
1
              HEAD IN LAYER   6 AT END OF TIME STEP   1 IN STRESS PERIOD    1
  ---------------------------------------------------------------------------

            1           2           3           4           5           6           7           8           9          10
           11          12          13          14          15          16          17          18          19          20
           21          22          23          24          25          26          27          28          29          30
           31          32          33
 ........................................................................................................................
   1    72.00       71.64       71.28       70.92       70.56       70.21       69.87       69.56       69.28       69.06    
        68.88       68.78       68.72       68.68       68.66       68.66       68.69       68.74       68.80       68.96    
        69.22       69.46       69.71       69.95       70.19       70.43       70.66       70.89       71.12       71.34    
        71.57       71.78       72.00    
1
              HEAD IN LAYER   7 AT END OF TIME STEP   1 IN STRESS PERIOD    1
  ---------------------------------------------------------------------------

            1           2           3           4           5           6           7           8           9          10
           11          12          13          14          15          16          17          18          19          20
           21          22          23          24          25          26          27          28          29          30
           31          32          33
 ........................................................................................................................
   1    72.00       71.61       71.23       70.85       70.47       70.10       69.75       69.44       69.16       68.95    
        68.82       68.75       68.70       68.66       68.62       68.62       68.65       68.73       68.79       68.95    
        69.20       69.44       69.69       69.93       70.17       70.40       70.64       70.87       71.10       71.33    
        71.55       71.78       72.00    
1
              HEAD IN LAYER   8 AT END OF TIME STEP   1 IN STRESS PERIOD    1
  ---------------------------------------------------------------------------

            1           2           3           4           5           6           7           8           9          10
           11          12          13          14          15          16          17          18          19          20
           21          22          23          24          25          26          27          28          29          30
           31          32          33
 ........................................................................................................................
   1    72.00       71.58       71.17       70.76       70.35       69.95       69.57       69.20       68.94       68.81    
        68.73       68.68       68.65       68.63       68.63       68.65       68.68       68.73       68.79       68.94    
        69.18       69.43       69.67       69.91       70.15       70.39       70.62       70.86       71.09       71.32    
        71.55       71.77       72.00    
1
              HEAD IN LAYER   9 AT END OF TIME STEP   1 IN STRESS PERIOD    1
  ---------------------------------------------------------------------------

            1           2           3           4           5           6           7           8           9          10
           11          12          13          14          15          16          17          18          19          20
           21          22          23          24          25          26          27          28          29          30
           31          32          33
 ........................................................................................................................
   1    72.00       71.55       71.10       70.65       70.21       69.77       69.34       68.94       68.66       68.59    
        68.56       68.55       68.55       68.57       68.59       68.63       68.67       68.72       68.78       68.93    
        69.17       69.41       69.66       69.90       70.14       70.38       70.61       70.85       71.08       71.31    
        71.54       71.77       72.00    
1
              HEAD IN LAYER  10 AT END OF TIME STEP   1 IN STRESS PERIOD    1
  ---------------------------------------------------------------------------

            1           2           3           4           5           6           7           8           9          10
           11          12          13          14          15          16          17          18          19          20
           21          22          23          24          25          26          27          28          29          30
           31          32          33
 ........................................................................................................................
   1    72.00       71.51       71.03       70.54       70.05       69.56       69.07       68.56       68.14       68.25    
        68.33       68.39       68.44       68.49       68.54       68.59       68.64       68.70       68.76       68.91    
        69.15       69.40       69.64       69.89       70.13       70.37       70.61       70.84       71.08       71.31    
        71.54       71.77       72.00    
1
              HEAD IN LAYER  11 AT END OF TIME STEP   1 IN STRESS PERIOD    1
  ---------------------------------------------------------------------------

            1           2           3           4           5           6           7           8           9          10
           11          12          13          14          15          16          17          18          19          20
           21          22          23          24          25          26          27          28          29          30
           31          32          33
 ........................................................................................................................
   1    72.00       71.48       70.95       70.42       69.90       69.37       68.84       68.30       67.86       68.02    
        68.15       68.24       68.33       68.40       68.47       68.54       68.60       68.67       68.73       68.89    
        69.14       69.39       69.64       69.88       70.13       70.37       70.61       70.84       71.08       71.31    
        71.54       71.77       72.00    
1
              HEAD IN LAYER  12 AT END OF TIME STEP   1 IN STRESS PERIOD    1
  ---------------------------------------------------------------------------

            1           2           3           4           5           6           7           8           9          10
           11          12          13          14          15          16          17          18          19          20
           21          22          23          24          25          26          27          28          29          30
           31          32          33
 ........................................................................................................................
   1    72.00       71.44       70.88       70.31       69.75       69.19       68.64       68.13       67.71       67.88    
        68.02       68.14       68.24       68.33       68.42       68.49       68.57       68.64       68.71       68.87    
        69.13       69.38       69.63       69.88       70.13       70.37       70.61       70.85       71.08       71.32    
        71.54       71.77       72.00    
1
              HEAD IN LAYER  13 AT END OF TIME STEP   1 IN STRESS PERIOD    1
  ---------------------------------------------------------------------------

            1           2           3           4           5           6           7           8           9          10
           11          12          13          14          15          16          17          18          19          20
           21          22          23          24          25          26          27          28          29          30
           31          32          33
 ........................................................................................................................
   1    72.00       71.40       70.81       70.20       69.59       68.96       68.44       68.07       67.70       67.83    
        67.96       68.07       68.18       68.28       68.37       68.46       68.54       68.62       68.69       68.85    
        69.12       69.38       69.64       69.89       70.14       70.39       70.63       70.86       71.10       71.32    
        71.55       71.78       72.00    
1
              HEAD IN LAYER  14 AT END OF TIME STEP   1 IN STRESS PERIOD    1
  ---------------------------------------------------------------------------

            1           2           3           4           5           6           7           8           9          10
           11          12          13          14          15          16          17          18          19          20
           21          22          23          24          25          26          27          28          29          30
           31          32          33
 ........................................................................................................................
   1    72.00       71.38       70.75       70.12       69.48       68.85       68.38       68.03       67.66       67.79    
        67.91       68.03       68.14       68.25       68.34       68.44       68.52       68.60       68.68       68.85    
        69.12       69.39       69.65       69.91       70.17       70.41       70.65       70.89       71.11       71.34    
        71.56       71.78       72.00    
1
              HEAD IN LAYER  15 AT END OF TIME STEP   1 IN STRESS PERIOD    1
  ---------------------------------------------------------------------------

            1           2           3           4           5           6           7           8           9          10
           11          12          13          14          15          16          17          18          19          20
           21          22          23          24          25          26          27          28          29          30
           31          32          33
 ........................................................................................................................
   1    72.00       71.36       70.71       70.05       69.35       68.79       68.40       68.02       67.64       67.77    
        67.89       68.01       68.12       68.23       68.33       68.43       68.52       68.61       68.68       68.86    
        69.14       69.41       69.68       69.95       70.21       70.46       70.69       70.92       71.14       71.36    
        71.58       71.79       72.00    
1
              HEAD IN LAYER  16 AT END OF TIME STEP   1 IN STRESS PERIOD    1
  ---------------------------------------------------------------------------

            1           2           3           4           5           6           7           8           9          10
           11          12          13          14          15          16          17          18          19          20
           21          22          23          24          25          26          27          28          29          30
           31          32          33
 ........................................................................................................................
   1    72.00       71.30       70.60       69.89       69.19       68.66       68.31       67.96       67.61       67.75    
        67.87       67.99       68.11       68.22       68.33       68.44       68.55       68.63       68.70       68.88    
        69.16       69.44       69.72       70.00       70.27       70.52       70.76       70.97       71.18       71.39    
        71.60       71.80       72.00    
1
              HEAD IN LAYER  17 AT END OF TIME STEP   1 IN STRESS PERIOD    1
  ---------------------------------------------------------------------------

            1           2           3           4           5           6           7           8           9          10
           11          12          13          14          15          16          17          18          19          20
           21          22          23          24          25          26          27          28          29          30
           31          32          33
 ........................................................................................................................
   1   -99.00      -99.00      -99.00      -99.00      -99.00      -99.00      -99.00     -1.0000E+30   68.64       68.64    
        68.64       68.64       68.64       68.64       68.64       68.64       68.64       68.68       68.73       68.90    
        69.18       69.46       69.76       70.06       70.40       70.64       70.85       71.05       71.24       71.43    
        71.62       71.81       72.00    
1
              HEAD IN LAYER  18 AT END OF TIME STEP   1 IN STRESS PERIOD    1
  ---------------------------------------------------------------------------

            1           2           3           4           5           6           7           8           9          10
           11          12          13          14          15          16          17          18          19          20
           21          22          23          24          25          26          27          28          29          30
           31          32          33
 ........................................................................................................................
   1   -99.00      -99.00      -99.00      -99.00      -99.00      -99.00      -99.00      -99.00      -99.00      -99.00    
       -99.00      -99.00      -99.00      -99.00      -99.00     -1.0000E+30   70.76       70.76       70.76       70.76    
        70.76       70.76       70.76       70.76       70.76       70.85       70.98       71.13       71.29       71.46    
        71.64       71.82       72.00    
1
              HEAD IN LAYER  19 AT END OF TIME STEP   1 IN STRESS PERIOD    1
  ---------------------------------------------------------------------------

            1           2           3           4           5           6           7           8           9          10
           11          12          13          14          15          16          17          18          19          20
           21          22          23          24          25          26          27          28          29          30
           31          32          33
 ........................................................................................................................
   1   -99.00      -99.00      -99.00      -99.00      -99.00      -99.00      -99.00      -99.00      -99.00      -99.00    
       -99.00      -99.00      -99.00      -99.00      -99.00      -99.00      -99.00      -99.00      -99.00      -99.00    
       -99.00      -99.00      -99.00      -99.00       70.90       70.95       71.05       71.18       71.32       71.48    
        71.65       71.82       72.00    

 HEAD WILL BE SAVED ON UNIT   51 AT END OF TIME STEP    1, STRESS PERIOD    1

 DRAWDOWN WILL BE SAVED ON UNIT   52 AT END OF TIME STEP    1, STRESS PERIOD    1
1
  VOLUMETRIC BUDGET FOR ENTIRE MODEL AT END OF TIME STEP    1, STRESS PERIOD   1
  ------------------------------------------------------------------------------

     CUMULATIVE VOLUMES      L**3       RATES FOR THIS TIME STEP      L**3/T
     ------------------                 ------------------------

           IN:                                      IN:
           ---                                      ---
             STORAGE =           0.0000               STORAGE =           0.0000
       CONSTANT HEAD =       36985.8281         CONSTANT HEAD =       36985.8281
               WELLS =           0.0000                 WELLS =           0.0000
       RIVER LEAKAGE =           0.0000         RIVER LEAKAGE =           0.0000
            RECHARGE =           3.1000              RECHARGE =           3.1000

            TOTAL IN =       36988.9297              TOTAL IN =       36988.9297

          OUT:                                     OUT:
          ----                                     ----
             STORAGE =           0.0000               STORAGE =           0.0000
       CONSTANT HEAD =           0.0000         CONSTANT HEAD =           0.0000
               WELLS =       35000.0000                 WELLS =       35000.0000
       RIVER LEAKAGE =        1988.9279         RIVER LEAKAGE =        1988.9279
            RECHARGE =           0.0000              RECHARGE =           0.0000

           TOTAL OUT =       36988.9297             TOTAL OUT =       36988.9297

            IN - OUT =           0.0000              IN - OUT =           0.0000

 PERCENT DISCREPANCY =           0.00     PERCENT DISCREPANCY =           0.00






         TIME SUMMARY AT END OF TIME STEP    1 IN STRESS PERIOD    1
                    SECONDS     MINUTES      HOURS       DAYS        YEARS
                    -----------------------------------------------------------
   TIME STEP LENGTH  86400.      1440.0      24.000      1.0000     2.73785E-03
 STRESS PERIOD TIME  86400.      1440.0      24.000      1.0000     2.73785E-03
         TOTAL TIME  86400.      1440.0      24.000      1.0000     2.73785E-03
1

 Run end date and time (yyyy/mm/dd hh:mm:ss): 2023/08/08 18:09:57
 Elapsed run time:  0.010 Seconds

