                                  MODFLOW-2005     
      U.S. GEOLOGICAL SURVEY MODULAR FINITE-DIFFERENCE GROUND-WATER FLOW MODEL
                            VERSION 1.12.00 2/3/2017

 LIST FILE: UncXSectPaper.list
                         UNIT    2

 OPENING UncXSectPaper.dis
 FILE TYPE:DIS   UNIT   11   STATUS:OLD    
 FORMAT:FORMATTED              ACCESS:SEQUENTIAL          

 OPENING UncXSectPaper.bas
 FILE TYPE:BAS6   UNIT   13   STATUS:OLD    
 FORMAT:FORMATTED              ACCESS:SEQUENTIAL          

 OPENING UncXSectPaper.lpf
 FILE TYPE:LPF   UNIT   15   STATUS:OLD    
 FORMAT:FORMATTED              ACCESS:SEQUENTIAL          

 OPENING UncXSectPaper.oc
 FILE TYPE:OC   UNIT   14   STATUS:OLD    
 FORMAT:FORMATTED              ACCESS:SEQUENTIAL          

 OPENING UncXSectPaper.pcg
 FILE TYPE:PCG   UNIT   27   STATUS:OLD    
 FORMAT:FORMATTED              ACCESS:SEQUENTIAL          

 OPENING UncXSectPaper.cbc
 FILE TYPE:DATA(BINARY)   UNIT   53   STATUS:REPLACE
 FORMAT:UNFORMATTED            ACCESS:STREAM              

 OPENING UncXSectPaper.hds
 FILE TYPE:DATA(BINARY)   UNIT   51   STATUS:REPLACE
 FORMAT:UNFORMATTED            ACCESS:STREAM              

 OPENING UncXSectPaper.ddn
 FILE TYPE:DATA(BINARY)   UNIT   52   STATUS:REPLACE
 FORMAT:UNFORMATTED            ACCESS:STREAM              

 BAS -- BASIC PACKAGE, VERSION 7, 5/2/2005 INPUT READ FROM UNIT   13

 MODFLOW was compiled using mixed precision
 Precision of REAL variables:           6
 Precision of DOUBLE PRECISION variables:          15

 DISCRETIZATION INPUT DATA READ FROM UNIT   11
 # DIS package for MODFLOW-2005 generated by Flopy 3.4.1
   51 LAYERS         1 ROWS       113 COLUMNS
    1 STRESS PERIOD(S) IN SIMULATION
 MODEL TIME UNIT IS DAYS
 MODEL LENGTH UNIT IS METERS
  Confining bed flag for each layer:
   0   0   0   0   0   0   0   0   0   0   0   0   0   0   0   0   0   0   0   0
   0   0   0   0   0   0   0   0   0   0   0   0   0   0   0   0   0   0   0   0
   0   0   0   0   0   0   0   0   0   0   0

                     DELR =   5.00000    

                     DELC =   1000.00    



           TOP ELEVATION OF LAYER 1
 READING ON UNIT   11 WITH FORMAT: (113E15.6)          



             MODEL LAYER BOTTOM EL. FOR LAYER   1
 READING ON UNIT   11 WITH FORMAT: (113E15.6)          



             MODEL LAYER BOTTOM EL. FOR LAYER   2
 READING ON UNIT   11 WITH FORMAT: (113E15.6)          



             MODEL LAYER BOTTOM EL. FOR LAYER   3
 READING ON UNIT   11 WITH FORMAT: (113E15.6)          



             MODEL LAYER BOTTOM EL. FOR LAYER   4
 READING ON UNIT   11 WITH FORMAT: (113E15.6)          



             MODEL LAYER BOTTOM EL. FOR LAYER   5
 READING ON UNIT   11 WITH FORMAT: (113E15.6)          



             MODEL LAYER BOTTOM EL. FOR LAYER   6
 READING ON UNIT   11 WITH FORMAT: (113E15.6)          



             MODEL LAYER BOTTOM EL. FOR LAYER   7
 READING ON UNIT   11 WITH FORMAT: (113E15.6)          



             MODEL LAYER BOTTOM EL. FOR LAYER   8
 READING ON UNIT   11 WITH FORMAT: (113E15.6)          



             MODEL LAYER BOTTOM EL. FOR LAYER   9
 READING ON UNIT   11 WITH FORMAT: (113E15.6)          



             MODEL LAYER BOTTOM EL. FOR LAYER  10
 READING ON UNIT   11 WITH FORMAT: (113E15.6)          



             MODEL LAYER BOTTOM EL. FOR LAYER  11
 READING ON UNIT   11 WITH FORMAT: (113E15.6)          



             MODEL LAYER BOTTOM EL. FOR LAYER  12
 READING ON UNIT   11 WITH FORMAT: (113E15.6)          



             MODEL LAYER BOTTOM EL. FOR LAYER  13
 READING ON UNIT   11 WITH FORMAT: (113E15.6)          



             MODEL LAYER BOTTOM EL. FOR LAYER  14
 READING ON UNIT   11 WITH FORMAT: (113E15.6)          



             MODEL LAYER BOTTOM EL. FOR LAYER  15
 READING ON UNIT   11 WITH FORMAT: (113E15.6)          



             MODEL LAYER BOTTOM EL. FOR LAYER  16
 READING ON UNIT   11 WITH FORMAT: (113E15.6)          



             MODEL LAYER BOTTOM EL. FOR LAYER  17
 READING ON UNIT   11 WITH FORMAT: (113E15.6)          



             MODEL LAYER BOTTOM EL. FOR LAYER  18
 READING ON UNIT   11 WITH FORMAT: (113E15.6)          



             MODEL LAYER BOTTOM EL. FOR LAYER  19
 READING ON UNIT   11 WITH FORMAT: (113E15.6)          



             MODEL LAYER BOTTOM EL. FOR LAYER  20
 READING ON UNIT   11 WITH FORMAT: (113E15.6)          



             MODEL LAYER BOTTOM EL. FOR LAYER  21
 READING ON UNIT   11 WITH FORMAT: (113E15.6)          



             MODEL LAYER BOTTOM EL. FOR LAYER  22
 READING ON UNIT   11 WITH FORMAT: (113E15.6)          



             MODEL LAYER BOTTOM EL. FOR LAYER  23
 READING ON UNIT   11 WITH FORMAT: (113E15.6)          



             MODEL LAYER BOTTOM EL. FOR LAYER  24
 READING ON UNIT   11 WITH FORMAT: (113E15.6)          



             MODEL LAYER BOTTOM EL. FOR LAYER  25
 READING ON UNIT   11 WITH FORMAT: (113E15.6)          



             MODEL LAYER BOTTOM EL. FOR LAYER  26
 READING ON UNIT   11 WITH FORMAT: (113E15.6)          



             MODEL LAYER BOTTOM EL. FOR LAYER  27
 READING ON UNIT   11 WITH FORMAT: (113E15.6)          



             MODEL LAYER BOTTOM EL. FOR LAYER  28
 READING ON UNIT   11 WITH FORMAT: (113E15.6)          



             MODEL LAYER BOTTOM EL. FOR LAYER  29
 READING ON UNIT   11 WITH FORMAT: (113E15.6)          



             MODEL LAYER BOTTOM EL. FOR LAYER  30
 READING ON UNIT   11 WITH FORMAT: (113E15.6)          



             MODEL LAYER BOTTOM EL. FOR LAYER  31
 READING ON UNIT   11 WITH FORMAT: (113E15.6)          



             MODEL LAYER BOTTOM EL. FOR LAYER  32
 READING ON UNIT   11 WITH FORMAT: (113E15.6)          



             MODEL LAYER BOTTOM EL. FOR LAYER  33
 READING ON UNIT   11 WITH FORMAT: (113E15.6)          



             MODEL LAYER BOTTOM EL. FOR LAYER  34
 READING ON UNIT   11 WITH FORMAT: (113E15.6)          



             MODEL LAYER BOTTOM EL. FOR LAYER  35
 READING ON UNIT   11 WITH FORMAT: (113E15.6)          



             MODEL LAYER BOTTOM EL. FOR LAYER  36
 READING ON UNIT   11 WITH FORMAT: (113E15.6)          



             MODEL LAYER BOTTOM EL. FOR LAYER  37
 READING ON UNIT   11 WITH FORMAT: (113E15.6)          



             MODEL LAYER BOTTOM EL. FOR LAYER  38
 READING ON UNIT   11 WITH FORMAT: (113E15.6)          



             MODEL LAYER BOTTOM EL. FOR LAYER  39
 READING ON UNIT   11 WITH FORMAT: (113E15.6)          



             MODEL LAYER BOTTOM EL. FOR LAYER  40
 READING ON UNIT   11 WITH FORMAT: (113E15.6)          



             MODEL LAYER BOTTOM EL. FOR LAYER  41
 READING ON UNIT   11 WITH FORMAT: (113E15.6)          



             MODEL LAYER BOTTOM EL. FOR LAYER  42
 READING ON UNIT   11 WITH FORMAT: (113E15.6)          



             MODEL LAYER BOTTOM EL. FOR LAYER  43
 READING ON UNIT   11 WITH FORMAT: (113E15.6)          



             MODEL LAYER BOTTOM EL. FOR LAYER  44
 READING ON UNIT   11 WITH FORMAT: (113E15.6)          



             MODEL LAYER BOTTOM EL. FOR LAYER  45
 READING ON UNIT   11 WITH FORMAT: (113E15.6)          



             MODEL LAYER BOTTOM EL. FOR LAYER  46
 READING ON UNIT   11 WITH FORMAT: (113E15.6)          



             MODEL LAYER BOTTOM EL. FOR LAYER  47
 READING ON UNIT   11 WITH FORMAT: (113E15.6)          



             MODEL LAYER BOTTOM EL. FOR LAYER  48
 READING ON UNIT   11 WITH FORMAT: (113E15.6)          



             MODEL LAYER BOTTOM EL. FOR LAYER  49
 READING ON UNIT   11 WITH FORMAT: (113E15.6)          



             MODEL LAYER BOTTOM EL. FOR LAYER  50
 READING ON UNIT   11 WITH FORMAT: (113E15.6)          



             MODEL LAYER BOTTOM EL. FOR LAYER  51
 READING ON UNIT   11 WITH FORMAT: (113E15.6)          


 STRESS PERIOD     LENGTH       TIME STEPS     MULTIPLIER FOR DELT    SS FLAG
 ----------------------------------------------------------------------------
        1         1.000000          1                    1.000         SS

 STEADY-STATE SIMULATION




 # BAS6 package for MODFLOW-2005 generated by Flopy 3.4.1                        
 THE FREE FORMAT OPTION HAS BEEN SELECTED



                     BOUNDARY ARRAY FOR LAYER   1
 READING ON UNIT   13 WITH FORMAT: (113I10)            



                     BOUNDARY ARRAY FOR LAYER   2
 READING ON UNIT   13 WITH FORMAT: (113I10)            



                     BOUNDARY ARRAY FOR LAYER   3
 READING ON UNIT   13 WITH FORMAT: (113I10)            



                     BOUNDARY ARRAY FOR LAYER   4
 READING ON UNIT   13 WITH FORMAT: (113I10)            



                     BOUNDARY ARRAY FOR LAYER   5
 READING ON UNIT   13 WITH FORMAT: (113I10)            



                     BOUNDARY ARRAY FOR LAYER   6
 READING ON UNIT   13 WITH FORMAT: (113I10)            



                     BOUNDARY ARRAY FOR LAYER   7
 READING ON UNIT   13 WITH FORMAT: (113I10)            



                     BOUNDARY ARRAY FOR LAYER   8
 READING ON UNIT   13 WITH FORMAT: (113I10)            



                     BOUNDARY ARRAY FOR LAYER   9
 READING ON UNIT   13 WITH FORMAT: (113I10)            



                     BOUNDARY ARRAY FOR LAYER  10
 READING ON UNIT   13 WITH FORMAT: (113I10)            



                     BOUNDARY ARRAY FOR LAYER  11
 READING ON UNIT   13 WITH FORMAT: (113I10)            



                     BOUNDARY ARRAY FOR LAYER  12
 READING ON UNIT   13 WITH FORMAT: (113I10)            



                     BOUNDARY ARRAY FOR LAYER  13
 READING ON UNIT   13 WITH FORMAT: (113I10)            



                     BOUNDARY ARRAY FOR LAYER  14
 READING ON UNIT   13 WITH FORMAT: (113I10)            



                     BOUNDARY ARRAY FOR LAYER  15
 READING ON UNIT   13 WITH FORMAT: (113I10)            



                     BOUNDARY ARRAY FOR LAYER  16
 READING ON UNIT   13 WITH FORMAT: (113I10)            



                     BOUNDARY ARRAY FOR LAYER  17
 READING ON UNIT   13 WITH FORMAT: (113I10)            



                     BOUNDARY ARRAY FOR LAYER  18
 READING ON UNIT   13 WITH FORMAT: (113I10)            



                     BOUNDARY ARRAY FOR LAYER  19
 READING ON UNIT   13 WITH FORMAT: (113I10)            



                     BOUNDARY ARRAY FOR LAYER  20
 READING ON UNIT   13 WITH FORMAT: (113I10)            



                     BOUNDARY ARRAY FOR LAYER  21
 READING ON UNIT   13 WITH FORMAT: (113I10)            



                     BOUNDARY ARRAY FOR LAYER  22
 READING ON UNIT   13 WITH FORMAT: (113I10)            



                     BOUNDARY ARRAY FOR LAYER  23
 READING ON UNIT   13 WITH FORMAT: (113I10)            



                     BOUNDARY ARRAY FOR LAYER  24
 READING ON UNIT   13 WITH FORMAT: (113I10)            



                     BOUNDARY ARRAY FOR LAYER  25
 READING ON UNIT   13 WITH FORMAT: (113I10)            



                     BOUNDARY ARRAY FOR LAYER  26
 READING ON UNIT   13 WITH FORMAT: (113I10)            



                     BOUNDARY ARRAY FOR LAYER  27
 READING ON UNIT   13 WITH FORMAT: (113I10)            



                     BOUNDARY ARRAY FOR LAYER  28
 READING ON UNIT   13 WITH FORMAT: (113I10)            



                     BOUNDARY ARRAY FOR LAYER  29
 READING ON UNIT   13 WITH FORMAT: (113I10)            



                     BOUNDARY ARRAY FOR LAYER  30
 READING ON UNIT   13 WITH FORMAT: (113I10)            



                     BOUNDARY ARRAY FOR LAYER  31
 READING ON UNIT   13 WITH FORMAT: (113I10)            



                     BOUNDARY ARRAY FOR LAYER  32
 READING ON UNIT   13 WITH FORMAT: (113I10)            



                     BOUNDARY ARRAY FOR LAYER  33
 READING ON UNIT   13 WITH FORMAT: (113I10)            



                     BOUNDARY ARRAY FOR LAYER  34
 READING ON UNIT   13 WITH FORMAT: (113I10)            



                     BOUNDARY ARRAY FOR LAYER  35
 READING ON UNIT   13 WITH FORMAT: (113I10)            



                     BOUNDARY ARRAY FOR LAYER  36
 READING ON UNIT   13 WITH FORMAT: (113I10)            



                     BOUNDARY ARRAY FOR LAYER  37
 READING ON UNIT   13 WITH FORMAT: (113I10)            



                     BOUNDARY ARRAY FOR LAYER  38
 READING ON UNIT   13 WITH FORMAT: (113I10)            



                     BOUNDARY ARRAY FOR LAYER  39
 READING ON UNIT   13 WITH FORMAT: (113I10)            



                     BOUNDARY ARRAY FOR LAYER  40
 READING ON UNIT   13 WITH FORMAT: (113I10)            



                     BOUNDARY ARRAY FOR LAYER  41
 READING ON UNIT   13 WITH FORMAT: (113I10)            



                     BOUNDARY ARRAY FOR LAYER  42
 READING ON UNIT   13 WITH FORMAT: (113I10)            



                     BOUNDARY ARRAY FOR LAYER  43
 READING ON UNIT   13 WITH FORMAT: (113I10)            



                     BOUNDARY ARRAY FOR LAYER  44
 READING ON UNIT   13 WITH FORMAT: (113I10)            



                     BOUNDARY ARRAY FOR LAYER  45
 READING ON UNIT   13 WITH FORMAT: (113I10)            



                     BOUNDARY ARRAY FOR LAYER  46
 READING ON UNIT   13 WITH FORMAT: (113I10)            



                     BOUNDARY ARRAY FOR LAYER  47
 READING ON UNIT   13 WITH FORMAT: (113I10)            



                     BOUNDARY ARRAY FOR LAYER  48
 READING ON UNIT   13 WITH FORMAT: (113I10)            



                     BOUNDARY ARRAY FOR LAYER  49
 READING ON UNIT   13 WITH FORMAT: (113I10)            



                     BOUNDARY ARRAY FOR LAYER  50
 READING ON UNIT   13 WITH FORMAT: (113I10)            



                     BOUNDARY ARRAY FOR LAYER  51
 READING ON UNIT   13 WITH FORMAT: (113I10)            

 AQUIFER HEAD WILL BE SET TO  -99.000     AT ALL NO-FLOW NODES (IBOUND=0).



                       INITIAL HEAD FOR LAYER   1
 READING ON UNIT   13 WITH FORMAT: (113E15.6)          



                       INITIAL HEAD FOR LAYER   2
 READING ON UNIT   13 WITH FORMAT: (113E15.6)          



                       INITIAL HEAD FOR LAYER   3
 READING ON UNIT   13 WITH FORMAT: (113E15.6)          



                       INITIAL HEAD FOR LAYER   4
 READING ON UNIT   13 WITH FORMAT: (113E15.6)          



                       INITIAL HEAD FOR LAYER   5
 READING ON UNIT   13 WITH FORMAT: (113E15.6)          



                       INITIAL HEAD FOR LAYER   6
 READING ON UNIT   13 WITH FORMAT: (113E15.6)          



                       INITIAL HEAD FOR LAYER   7
 READING ON UNIT   13 WITH FORMAT: (113E15.6)          



                       INITIAL HEAD FOR LAYER   8
 READING ON UNIT   13 WITH FORMAT: (113E15.6)          



                       INITIAL HEAD FOR LAYER   9
 READING ON UNIT   13 WITH FORMAT: (113E15.6)          



                       INITIAL HEAD FOR LAYER  10
 READING ON UNIT   13 WITH FORMAT: (113E15.6)          



                       INITIAL HEAD FOR LAYER  11
 READING ON UNIT   13 WITH FORMAT: (113E15.6)          



                       INITIAL HEAD FOR LAYER  12
 READING ON UNIT   13 WITH FORMAT: (113E15.6)          



                       INITIAL HEAD FOR LAYER  13
 READING ON UNIT   13 WITH FORMAT: (113E15.6)          



                       INITIAL HEAD FOR LAYER  14
 READING ON UNIT   13 WITH FORMAT: (113E15.6)          



                       INITIAL HEAD FOR LAYER  15
 READING ON UNIT   13 WITH FORMAT: (113E15.6)          



                       INITIAL HEAD FOR LAYER  16
 READING ON UNIT   13 WITH FORMAT: (113E15.6)          



                       INITIAL HEAD FOR LAYER  17
 READING ON UNIT   13 WITH FORMAT: (113E15.6)          



                       INITIAL HEAD FOR LAYER  18
 READING ON UNIT   13 WITH FORMAT: (113E15.6)          



                       INITIAL HEAD FOR LAYER  19
 READING ON UNIT   13 WITH FORMAT: (113E15.6)          



                       INITIAL HEAD FOR LAYER  20
 READING ON UNIT   13 WITH FORMAT: (113E15.6)          



                       INITIAL HEAD FOR LAYER  21
 READING ON UNIT   13 WITH FORMAT: (113E15.6)          



                       INITIAL HEAD FOR LAYER  22
 READING ON UNIT   13 WITH FORMAT: (113E15.6)          



                       INITIAL HEAD FOR LAYER  23
 READING ON UNIT   13 WITH FORMAT: (113E15.6)          



                       INITIAL HEAD FOR LAYER  24
 READING ON UNIT   13 WITH FORMAT: (113E15.6)          



                       INITIAL HEAD FOR LAYER  25
 READING ON UNIT   13 WITH FORMAT: (113E15.6)          



                       INITIAL HEAD FOR LAYER  26
 READING ON UNIT   13 WITH FORMAT: (113E15.6)          



                       INITIAL HEAD FOR LAYER  27
 READING ON UNIT   13 WITH FORMAT: (113E15.6)          



                       INITIAL HEAD FOR LAYER  28
 READING ON UNIT   13 WITH FORMAT: (113E15.6)          



                       INITIAL HEAD FOR LAYER  29
 READING ON UNIT   13 WITH FORMAT: (113E15.6)          



                       INITIAL HEAD FOR LAYER  30
 READING ON UNIT   13 WITH FORMAT: (113E15.6)          



                       INITIAL HEAD FOR LAYER  31
 READING ON UNIT   13 WITH FORMAT: (113E15.6)          



                       INITIAL HEAD FOR LAYER  32
 READING ON UNIT   13 WITH FORMAT: (113E15.6)          



                       INITIAL HEAD FOR LAYER  33
 READING ON UNIT   13 WITH FORMAT: (113E15.6)          



                       INITIAL HEAD FOR LAYER  34
 READING ON UNIT   13 WITH FORMAT: (113E15.6)          



                       INITIAL HEAD FOR LAYER  35
 READING ON UNIT   13 WITH FORMAT: (113E15.6)          



                       INITIAL HEAD FOR LAYER  36
 READING ON UNIT   13 WITH FORMAT: (113E15.6)          



                       INITIAL HEAD FOR LAYER  37
 READING ON UNIT   13 WITH FORMAT: (113E15.6)          



                       INITIAL HEAD FOR LAYER  38
 READING ON UNIT   13 WITH FORMAT: (113E15.6)          



                       INITIAL HEAD FOR LAYER  39
 READING ON UNIT   13 WITH FORMAT: (113E15.6)          



                       INITIAL HEAD FOR LAYER  40
 READING ON UNIT   13 WITH FORMAT: (113E15.6)          



                       INITIAL HEAD FOR LAYER  41
 READING ON UNIT   13 WITH FORMAT: (113E15.6)          



                       INITIAL HEAD FOR LAYER  42
 READING ON UNIT   13 WITH FORMAT: (113E15.6)          



                       INITIAL HEAD FOR LAYER  43
 READING ON UNIT   13 WITH FORMAT: (113E15.6)          



                       INITIAL HEAD FOR LAYER  44
 READING ON UNIT   13 WITH FORMAT: (113E15.6)          



                       INITIAL HEAD FOR LAYER  45
 READING ON UNIT   13 WITH FORMAT: (113E15.6)          



                       INITIAL HEAD FOR LAYER  46
 READING ON UNIT   13 WITH FORMAT: (113E15.6)          



                       INITIAL HEAD FOR LAYER  47
 READING ON UNIT   13 WITH FORMAT: (113E15.6)          



                       INITIAL HEAD FOR LAYER  48
 READING ON UNIT   13 WITH FORMAT: (113E15.6)          



                       INITIAL HEAD FOR LAYER  49
 READING ON UNIT   13 WITH FORMAT: (113E15.6)          



                       INITIAL HEAD FOR LAYER  50
 READING ON UNIT   13 WITH FORMAT: (113E15.6)          



                       INITIAL HEAD FOR LAYER  51
 READING ON UNIT   13 WITH FORMAT: (113E15.6)          
 # OC package for MODFLOW-2005 generated by Flopy 3.4.1

 OUTPUT CONTROL IS SPECIFIED ONLY AT TIME STEPS FOR WHICH OUTPUT IS DESIRED
 COMPACT CELL-BY-CELL BUDGET FILES WILL BE WRITTEN
 AUXILIARY DATA WILL BE SAVED IN CELL-BY-CELL BUDGET FILES
 HEAD PRINT FORMAT CODE IS   0    DRAWDOWN PRINT FORMAT CODE IS   0
 HEADS WILL BE SAVED ON UNIT   51    DRAWDOWNS WILL BE SAVED ON UNIT   52

 LPF -- LAYER-PROPERTY FLOW PACKAGE, VERSION 7, 5/2/2005
         INPUT READ FROM UNIT   15
 # LPF package for MODFLOW-2005 generated by Flopy 3.4.1
 CELL-BY-CELL FLOWS WILL BE SAVED ON UNIT   53
 HEAD AT CELLS THAT CONVERT TO DRY= -1.00000E+30
 No named parameters

   LAYER FLAGS:
 LAYER       LAYTYP        LAYAVG         CHANI        LAYVKA        LAYWET
 ---------------------------------------------------------------------------
    1             1             0     1.000E+00             0             1
    2             1             0     1.000E+00             0             1
    3             1             0     1.000E+00             0             1
    4             1             0     1.000E+00             0             1
    5             1             0     1.000E+00             0             1
    6             1             0     1.000E+00             0             1
    7             1             0     1.000E+00             0             1
    8             1             0     1.000E+00             0             1
    9             1             0     1.000E+00             0             1
   10             1             0     1.000E+00             0             1
   11             1             0     1.000E+00             0             1
   12             1             0     1.000E+00             0             1
   13             1             0     1.000E+00             0             1
   14             1             0     1.000E+00             0             1
   15             1             0     1.000E+00             0             1
   16             1             0     1.000E+00             0             1
   17             1             0     1.000E+00             0             1
   18             1             0     1.000E+00             0             1
   19             1             0     1.000E+00             0             1
   20             1             0     1.000E+00             0             1
   21             1             0     1.000E+00             0             1
   22             1             0     1.000E+00             0             1
   23             1             0     1.000E+00             0             1
   24             1             0     1.000E+00             0             1
   25             1             0     1.000E+00             0             1
   26             1             0     1.000E+00             0             1
   27             1             0     1.000E+00             0             1
   28             1             0     1.000E+00             0             1
   29             1             0     1.000E+00             0             1
   30             1             0     1.000E+00             0             1
   31             1             0     1.000E+00             0             1
   32             1             0     1.000E+00             0             1
   33             1             0     1.000E+00             0             1
   34             1             0     1.000E+00             0             1
   35             1             0     1.000E+00             0             1
   36             1             0     1.000E+00             0             1
   37             1             0     1.000E+00             0             1
   38             1             0     1.000E+00             0             1
   39             1             0     1.000E+00             0             1
   40             1             0     1.000E+00             0             1
   41             1             0     1.000E+00             0             1
   42             1             0     1.000E+00             0             1
   43             1             0     1.000E+00             0             1
   44             1             0     1.000E+00             0             1
   45             1             0     1.000E+00             0             1
   46             1             0     1.000E+00             0             1
   47             1             0     1.000E+00             0             1
   48             1             0     1.000E+00             0             1
   49             1             0     1.000E+00             0             1
   50             1             0     1.000E+00             0             1
   51             1             0     1.000E+00             0             1

   INTERPRETATION OF LAYER FLAGS:
                        INTERBLOCK     HORIZONTAL    DATA IN
         LAYER TYPE   TRANSMISSIVITY   ANISOTROPY   ARRAY VKA   WETTABILITY
 LAYER      (LAYTYP)      (LAYAVG)       (CHANI)      (LAYVKA)      (LAYWET)
 ---------------------------------------------------------------------------
    1   CONVERTIBLE      HARMONIC     1.000E+00    VERTICAL K      WETTABLE
    2   CONVERTIBLE      HARMONIC     1.000E+00    VERTICAL K      WETTABLE
    3   CONVERTIBLE      HARMONIC     1.000E+00    VERTICAL K      WETTABLE
    4   CONVERTIBLE      HARMONIC     1.000E+00    VERTICAL K      WETTABLE
    5   CONVERTIBLE      HARMONIC     1.000E+00    VERTICAL K      WETTABLE
    6   CONVERTIBLE      HARMONIC     1.000E+00    VERTICAL K      WETTABLE
    7   CONVERTIBLE      HARMONIC     1.000E+00    VERTICAL K      WETTABLE
    8   CONVERTIBLE      HARMONIC     1.000E+00    VERTICAL K      WETTABLE
    9   CONVERTIBLE      HARMONIC     1.000E+00    VERTICAL K      WETTABLE
   10   CONVERTIBLE      HARMONIC     1.000E+00    VERTICAL K      WETTABLE
   11   CONVERTIBLE      HARMONIC     1.000E+00    VERTICAL K      WETTABLE
   12   CONVERTIBLE      HARMONIC     1.000E+00    VERTICAL K      WETTABLE
   13   CONVERTIBLE      HARMONIC     1.000E+00    VERTICAL K      WETTABLE
   14   CONVERTIBLE      HARMONIC     1.000E+00    VERTICAL K      WETTABLE
   15   CONVERTIBLE      HARMONIC     1.000E+00    VERTICAL K      WETTABLE
   16   CONVERTIBLE      HARMONIC     1.000E+00    VERTICAL K      WETTABLE
   17   CONVERTIBLE      HARMONIC     1.000E+00    VERTICAL K      WETTABLE
   18   CONVERTIBLE      HARMONIC     1.000E+00    VERTICAL K      WETTABLE
   19   CONVERTIBLE      HARMONIC     1.000E+00    VERTICAL K      WETTABLE
   20   CONVERTIBLE      HARMONIC     1.000E+00    VERTICAL K      WETTABLE
   21   CONVERTIBLE      HARMONIC     1.000E+00    VERTICAL K      WETTABLE
   22   CONVERTIBLE      HARMONIC     1.000E+00    VERTICAL K      WETTABLE
   23   CONVERTIBLE      HARMONIC     1.000E+00    VERTICAL K      WETTABLE
   24   CONVERTIBLE      HARMONIC     1.000E+00    VERTICAL K      WETTABLE
   25   CONVERTIBLE      HARMONIC     1.000E+00    VERTICAL K      WETTABLE
   26   CONVERTIBLE      HARMONIC     1.000E+00    VERTICAL K      WETTABLE
   27   CONVERTIBLE      HARMONIC     1.000E+00    VERTICAL K      WETTABLE
   28   CONVERTIBLE      HARMONIC     1.000E+00    VERTICAL K      WETTABLE
   29   CONVERTIBLE      HARMONIC     1.000E+00    VERTICAL K      WETTABLE
   30   CONVERTIBLE      HARMONIC     1.000E+00    VERTICAL K      WETTABLE
   31   CONVERTIBLE      HARMONIC     1.000E+00    VERTICAL K      WETTABLE
   32   CONVERTIBLE      HARMONIC     1.000E+00    VERTICAL K      WETTABLE
   33   CONVERTIBLE      HARMONIC     1.000E+00    VERTICAL K      WETTABLE
   34   CONVERTIBLE      HARMONIC     1.000E+00    VERTICAL K      WETTABLE
   35   CONVERTIBLE      HARMONIC     1.000E+00    VERTICAL K      WETTABLE
   36   CONVERTIBLE      HARMONIC     1.000E+00    VERTICAL K      WETTABLE
   37   CONVERTIBLE      HARMONIC     1.000E+00    VERTICAL K      WETTABLE
   38   CONVERTIBLE      HARMONIC     1.000E+00    VERTICAL K      WETTABLE
   39   CONVERTIBLE      HARMONIC     1.000E+00    VERTICAL K      WETTABLE
   40   CONVERTIBLE      HARMONIC     1.000E+00    VERTICAL K      WETTABLE
   41   CONVERTIBLE      HARMONIC     1.000E+00    VERTICAL K      WETTABLE
   42   CONVERTIBLE      HARMONIC     1.000E+00    VERTICAL K      WETTABLE
   43   CONVERTIBLE      HARMONIC     1.000E+00    VERTICAL K      WETTABLE
   44   CONVERTIBLE      HARMONIC     1.000E+00    VERTICAL K      WETTABLE
   45   CONVERTIBLE      HARMONIC     1.000E+00    VERTICAL K      WETTABLE
   46   CONVERTIBLE      HARMONIC     1.000E+00    VERTICAL K      WETTABLE
   47   CONVERTIBLE      HARMONIC     1.000E+00    VERTICAL K      WETTABLE
   48   CONVERTIBLE      HARMONIC     1.000E+00    VERTICAL K      WETTABLE
   49   CONVERTIBLE      HARMONIC     1.000E+00    VERTICAL K      WETTABLE
   50   CONVERTIBLE      HARMONIC     1.000E+00    VERTICAL K      WETTABLE
   51   CONVERTIBLE      HARMONIC     1.000E+00    VERTICAL K      WETTABLE

 WETTING CAPABILITY IS ACTIVE IN  51 LAYERS
  WETTING FACTOR=  0.100000001    
  WETTING ITERATION INTERVAL=           1
  IHDWET=           0



              HYD. COND. ALONG ROWS FOR LAYER   1
 READING ON UNIT   15 WITH FORMAT: (113E15.6)          



                VERTICAL HYD. COND. FOR LAYER   1
 READING ON UNIT   15 WITH FORMAT: (113E15.6)          

         WETDRY PARAMETER =   1.00000     FOR LAYER   1



              HYD. COND. ALONG ROWS FOR LAYER   2
 READING ON UNIT   15 WITH FORMAT: (113E15.6)          



                VERTICAL HYD. COND. FOR LAYER   2
 READING ON UNIT   15 WITH FORMAT: (113E15.6)          

         WETDRY PARAMETER =   1.00000     FOR LAYER   2



              HYD. COND. ALONG ROWS FOR LAYER   3
 READING ON UNIT   15 WITH FORMAT: (113E15.6)          



                VERTICAL HYD. COND. FOR LAYER   3
 READING ON UNIT   15 WITH FORMAT: (113E15.6)          

         WETDRY PARAMETER =   1.00000     FOR LAYER   3



              HYD. COND. ALONG ROWS FOR LAYER   4
 READING ON UNIT   15 WITH FORMAT: (113E15.6)          



                VERTICAL HYD. COND. FOR LAYER   4
 READING ON UNIT   15 WITH FORMAT: (113E15.6)          

         WETDRY PARAMETER =   1.00000     FOR LAYER   4



              HYD. COND. ALONG ROWS FOR LAYER   5
 READING ON UNIT   15 WITH FORMAT: (113E15.6)          



                VERTICAL HYD. COND. FOR LAYER   5
 READING ON UNIT   15 WITH FORMAT: (113E15.6)          

         WETDRY PARAMETER =   1.00000     FOR LAYER   5



              HYD. COND. ALONG ROWS FOR LAYER   6
 READING ON UNIT   15 WITH FORMAT: (113E15.6)          



                VERTICAL HYD. COND. FOR LAYER   6
 READING ON UNIT   15 WITH FORMAT: (113E15.6)          

         WETDRY PARAMETER =   1.00000     FOR LAYER   6



              HYD. COND. ALONG ROWS FOR LAYER   7
 READING ON UNIT   15 WITH FORMAT: (113E15.6)          



                VERTICAL HYD. COND. FOR LAYER   7
 READING ON UNIT   15 WITH FORMAT: (113E15.6)          

         WETDRY PARAMETER =   1.00000     FOR LAYER   7



              HYD. COND. ALONG ROWS FOR LAYER   8
 READING ON UNIT   15 WITH FORMAT: (113E15.6)          



                VERTICAL HYD. COND. FOR LAYER   8
 READING ON UNIT   15 WITH FORMAT: (113E15.6)          

         WETDRY PARAMETER =   1.00000     FOR LAYER   8



              HYD. COND. ALONG ROWS FOR LAYER   9
 READING ON UNIT   15 WITH FORMAT: (113E15.6)          



                VERTICAL HYD. COND. FOR LAYER   9
 READING ON UNIT   15 WITH FORMAT: (113E15.6)          

         WETDRY PARAMETER =   1.00000     FOR LAYER   9



              HYD. COND. ALONG ROWS FOR LAYER  10
 READING ON UNIT   15 WITH FORMAT: (113E15.6)          



                VERTICAL HYD. COND. FOR LAYER  10
 READING ON UNIT   15 WITH FORMAT: (113E15.6)          

         WETDRY PARAMETER =   1.00000     FOR LAYER  10



              HYD. COND. ALONG ROWS FOR LAYER  11
 READING ON UNIT   15 WITH FORMAT: (113E15.6)          



                VERTICAL HYD. COND. FOR LAYER  11
 READING ON UNIT   15 WITH FORMAT: (113E15.6)          

         WETDRY PARAMETER =   1.00000     FOR LAYER  11



              HYD. COND. ALONG ROWS FOR LAYER  12
 READING ON UNIT   15 WITH FORMAT: (113E15.6)          



                VERTICAL HYD. COND. FOR LAYER  12
 READING ON UNIT   15 WITH FORMAT: (113E15.6)          

         WETDRY PARAMETER =   1.00000     FOR LAYER  12



              HYD. COND. ALONG ROWS FOR LAYER  13
 READING ON UNIT   15 WITH FORMAT: (113E15.6)          



                VERTICAL HYD. COND. FOR LAYER  13
 READING ON UNIT   15 WITH FORMAT: (113E15.6)          

         WETDRY PARAMETER =   1.00000     FOR LAYER  13



              HYD. COND. ALONG ROWS FOR LAYER  14
 READING ON UNIT   15 WITH FORMAT: (113E15.6)          



                VERTICAL HYD. COND. FOR LAYER  14
 READING ON UNIT   15 WITH FORMAT: (113E15.6)          

         WETDRY PARAMETER =   1.00000     FOR LAYER  14



              HYD. COND. ALONG ROWS FOR LAYER  15
 READING ON UNIT   15 WITH FORMAT: (113E15.6)          



                VERTICAL HYD. COND. FOR LAYER  15
 READING ON UNIT   15 WITH FORMAT: (113E15.6)          

         WETDRY PARAMETER =   1.00000     FOR LAYER  15



              HYD. COND. ALONG ROWS FOR LAYER  16
 READING ON UNIT   15 WITH FORMAT: (113E15.6)          



                VERTICAL HYD. COND. FOR LAYER  16
 READING ON UNIT   15 WITH FORMAT: (113E15.6)          

         WETDRY PARAMETER =   1.00000     FOR LAYER  16



              HYD. COND. ALONG ROWS FOR LAYER  17
 READING ON UNIT   15 WITH FORMAT: (113E15.6)          



                VERTICAL HYD. COND. FOR LAYER  17
 READING ON UNIT   15 WITH FORMAT: (113E15.6)          

         WETDRY PARAMETER =   1.00000     FOR LAYER  17



              HYD. COND. ALONG ROWS FOR LAYER  18
 READING ON UNIT   15 WITH FORMAT: (113E15.6)          



                VERTICAL HYD. COND. FOR LAYER  18
 READING ON UNIT   15 WITH FORMAT: (113E15.6)          

         WETDRY PARAMETER =   1.00000     FOR LAYER  18



              HYD. COND. ALONG ROWS FOR LAYER  19
 READING ON UNIT   15 WITH FORMAT: (113E15.6)          



                VERTICAL HYD. COND. FOR LAYER  19
 READING ON UNIT   15 WITH FORMAT: (113E15.6)          

         WETDRY PARAMETER =   1.00000     FOR LAYER  19



              HYD. COND. ALONG ROWS FOR LAYER  20
 READING ON UNIT   15 WITH FORMAT: (113E15.6)          



                VERTICAL HYD. COND. FOR LAYER  20
 READING ON UNIT   15 WITH FORMAT: (113E15.6)          

         WETDRY PARAMETER =   1.00000     FOR LAYER  20



              HYD. COND. ALONG ROWS FOR LAYER  21
 READING ON UNIT   15 WITH FORMAT: (113E15.6)          



                VERTICAL HYD. COND. FOR LAYER  21
 READING ON UNIT   15 WITH FORMAT: (113E15.6)          

         WETDRY PARAMETER =   1.00000     FOR LAYER  21



              HYD. COND. ALONG ROWS FOR LAYER  22
 READING ON UNIT   15 WITH FORMAT: (113E15.6)          



                VERTICAL HYD. COND. FOR LAYER  22
 READING ON UNIT   15 WITH FORMAT: (113E15.6)          

         WETDRY PARAMETER =   1.00000     FOR LAYER  22



              HYD. COND. ALONG ROWS FOR LAYER  23
 READING ON UNIT   15 WITH FORMAT: (113E15.6)          



                VERTICAL HYD. COND. FOR LAYER  23
 READING ON UNIT   15 WITH FORMAT: (113E15.6)          

         WETDRY PARAMETER =   1.00000     FOR LAYER  23



              HYD. COND. ALONG ROWS FOR LAYER  24
 READING ON UNIT   15 WITH FORMAT: (113E15.6)          



                VERTICAL HYD. COND. FOR LAYER  24
 READING ON UNIT   15 WITH FORMAT: (113E15.6)          

         WETDRY PARAMETER =   1.00000     FOR LAYER  24



              HYD. COND. ALONG ROWS FOR LAYER  25
 READING ON UNIT   15 WITH FORMAT: (113E15.6)          



                VERTICAL HYD. COND. FOR LAYER  25
 READING ON UNIT   15 WITH FORMAT: (113E15.6)          

         WETDRY PARAMETER =   1.00000     FOR LAYER  25



              HYD. COND. ALONG ROWS FOR LAYER  26
 READING ON UNIT   15 WITH FORMAT: (113E15.6)          



                VERTICAL HYD. COND. FOR LAYER  26
 READING ON UNIT   15 WITH FORMAT: (113E15.6)          

         WETDRY PARAMETER =   1.00000     FOR LAYER  26



              HYD. COND. ALONG ROWS FOR LAYER  27
 READING ON UNIT   15 WITH FORMAT: (113E15.6)          



                VERTICAL HYD. COND. FOR LAYER  27
 READING ON UNIT   15 WITH FORMAT: (113E15.6)          

         WETDRY PARAMETER =   1.00000     FOR LAYER  27



              HYD. COND. ALONG ROWS FOR LAYER  28
 READING ON UNIT   15 WITH FORMAT: (113E15.6)          



                VERTICAL HYD. COND. FOR LAYER  28
 READING ON UNIT   15 WITH FORMAT: (113E15.6)          

         WETDRY PARAMETER =   1.00000     FOR LAYER  28



              HYD. COND. ALONG ROWS FOR LAYER  29
 READING ON UNIT   15 WITH FORMAT: (113E15.6)          



                VERTICAL HYD. COND. FOR LAYER  29
 READING ON UNIT   15 WITH FORMAT: (113E15.6)          

         WETDRY PARAMETER =   1.00000     FOR LAYER  29



              HYD. COND. ALONG ROWS FOR LAYER  30
 READING ON UNIT   15 WITH FORMAT: (113E15.6)          



                VERTICAL HYD. COND. FOR LAYER  30
 READING ON UNIT   15 WITH FORMAT: (113E15.6)          

         WETDRY PARAMETER =   1.00000     FOR LAYER  30



              HYD. COND. ALONG ROWS FOR LAYER  31
 READING ON UNIT   15 WITH FORMAT: (113E15.6)          



                VERTICAL HYD. COND. FOR LAYER  31
 READING ON UNIT   15 WITH FORMAT: (113E15.6)          

         WETDRY PARAMETER =   1.00000     FOR LAYER  31



              HYD. COND. ALONG ROWS FOR LAYER  32
 READING ON UNIT   15 WITH FORMAT: (113E15.6)          



                VERTICAL HYD. COND. FOR LAYER  32
 READING ON UNIT   15 WITH FORMAT: (113E15.6)          

         WETDRY PARAMETER =   1.00000     FOR LAYER  32



              HYD. COND. ALONG ROWS FOR LAYER  33
 READING ON UNIT   15 WITH FORMAT: (113E15.6)          



                VERTICAL HYD. COND. FOR LAYER  33
 READING ON UNIT   15 WITH FORMAT: (113E15.6)          

         WETDRY PARAMETER =   1.00000     FOR LAYER  33



              HYD. COND. ALONG ROWS FOR LAYER  34
 READING ON UNIT   15 WITH FORMAT: (113E15.6)          



                VERTICAL HYD. COND. FOR LAYER  34
 READING ON UNIT   15 WITH FORMAT: (113E15.6)          

         WETDRY PARAMETER =   1.00000     FOR LAYER  34



              HYD. COND. ALONG ROWS FOR LAYER  35
 READING ON UNIT   15 WITH FORMAT: (113E15.6)          



                VERTICAL HYD. COND. FOR LAYER  35
 READING ON UNIT   15 WITH FORMAT: (113E15.6)          

         WETDRY PARAMETER =   1.00000     FOR LAYER  35



              HYD. COND. ALONG ROWS FOR LAYER  36
 READING ON UNIT   15 WITH FORMAT: (113E15.6)          



                VERTICAL HYD. COND. FOR LAYER  36
 READING ON UNIT   15 WITH FORMAT: (113E15.6)          

         WETDRY PARAMETER =   1.00000     FOR LAYER  36



              HYD. COND. ALONG ROWS FOR LAYER  37
 READING ON UNIT   15 WITH FORMAT: (113E15.6)          



                VERTICAL HYD. COND. FOR LAYER  37
 READING ON UNIT   15 WITH FORMAT: (113E15.6)          

         WETDRY PARAMETER =   1.00000     FOR LAYER  37



              HYD. COND. ALONG ROWS FOR LAYER  38
 READING ON UNIT   15 WITH FORMAT: (113E15.6)          



                VERTICAL HYD. COND. FOR LAYER  38
 READING ON UNIT   15 WITH FORMAT: (113E15.6)          

         WETDRY PARAMETER =   1.00000     FOR LAYER  38



              HYD. COND. ALONG ROWS FOR LAYER  39
 READING ON UNIT   15 WITH FORMAT: (113E15.6)          



                VERTICAL HYD. COND. FOR LAYER  39
 READING ON UNIT   15 WITH FORMAT: (113E15.6)          

         WETDRY PARAMETER =   1.00000     FOR LAYER  39



              HYD. COND. ALONG ROWS FOR LAYER  40
 READING ON UNIT   15 WITH FORMAT: (113E15.6)          



                VERTICAL HYD. COND. FOR LAYER  40
 READING ON UNIT   15 WITH FORMAT: (113E15.6)          

         WETDRY PARAMETER =   1.00000     FOR LAYER  40



              HYD. COND. ALONG ROWS FOR LAYER  41
 READING ON UNIT   15 WITH FORMAT: (113E15.6)          



                VERTICAL HYD. COND. FOR LAYER  41
 READING ON UNIT   15 WITH FORMAT: (113E15.6)          

         WETDRY PARAMETER =   1.00000     FOR LAYER  41



              HYD. COND. ALONG ROWS FOR LAYER  42
 READING ON UNIT   15 WITH FORMAT: (113E15.6)          



                VERTICAL HYD. COND. FOR LAYER  42
 READING ON UNIT   15 WITH FORMAT: (113E15.6)          

         WETDRY PARAMETER =   1.00000     FOR LAYER  42



              HYD. COND. ALONG ROWS FOR LAYER  43
 READING ON UNIT   15 WITH FORMAT: (113E15.6)          



                VERTICAL HYD. COND. FOR LAYER  43
 READING ON UNIT   15 WITH FORMAT: (113E15.6)          

         WETDRY PARAMETER =   1.00000     FOR LAYER  43



              HYD. COND. ALONG ROWS FOR LAYER  44
 READING ON UNIT   15 WITH FORMAT: (113E15.6)          



                VERTICAL HYD. COND. FOR LAYER  44
 READING ON UNIT   15 WITH FORMAT: (113E15.6)          

         WETDRY PARAMETER =   1.00000     FOR LAYER  44



              HYD. COND. ALONG ROWS FOR LAYER  45
 READING ON UNIT   15 WITH FORMAT: (113E15.6)          



                VERTICAL HYD. COND. FOR LAYER  45
 READING ON UNIT   15 WITH FORMAT: (113E15.6)          

         WETDRY PARAMETER =   1.00000     FOR LAYER  45



              HYD. COND. ALONG ROWS FOR LAYER  46
 READING ON UNIT   15 WITH FORMAT: (113E15.6)          



                VERTICAL HYD. COND. FOR LAYER  46
 READING ON UNIT   15 WITH FORMAT: (113E15.6)          

         WETDRY PARAMETER =   1.00000     FOR LAYER  46



              HYD. COND. ALONG ROWS FOR LAYER  47
 READING ON UNIT   15 WITH FORMAT: (113E15.6)          



                VERTICAL HYD. COND. FOR LAYER  47
 READING ON UNIT   15 WITH FORMAT: (113E15.6)          

         WETDRY PARAMETER =   1.00000     FOR LAYER  47



              HYD. COND. ALONG ROWS FOR LAYER  48
 READING ON UNIT   15 WITH FORMAT: (113E15.6)          



                VERTICAL HYD. COND. FOR LAYER  48
 READING ON UNIT   15 WITH FORMAT: (113E15.6)          

         WETDRY PARAMETER =   1.00000     FOR LAYER  48



              HYD. COND. ALONG ROWS FOR LAYER  49
 READING ON UNIT   15 WITH FORMAT: (113E15.6)          



                VERTICAL HYD. COND. FOR LAYER  49
 READING ON UNIT   15 WITH FORMAT: (113E15.6)          

         WETDRY PARAMETER =   1.00000     FOR LAYER  49



              HYD. COND. ALONG ROWS FOR LAYER  50
 READING ON UNIT   15 WITH FORMAT: (113E15.6)          



                VERTICAL HYD. COND. FOR LAYER  50
 READING ON UNIT   15 WITH FORMAT: (113E15.6)          

         WETDRY PARAMETER =   1.00000     FOR LAYER  50



              HYD. COND. ALONG ROWS FOR LAYER  51
 READING ON UNIT   15 WITH FORMAT: (113E15.6)          



                VERTICAL HYD. COND. FOR LAYER  51
 READING ON UNIT   15 WITH FORMAT: (113E15.6)          

         WETDRY PARAMETER =   1.00000     FOR LAYER  51
 NODE (LAYER,ROW,COL)   1     1     1 ELIMINATED BECAUSE ALL HYDRAULIC
 CONDUCTIVITIES TO NODE ARE 0
 NODE (LAYER,ROW,COL)   1     1     2 ELIMINATED BECAUSE ALL HYDRAULIC
 CONDUCTIVITIES TO NODE ARE 0
 NODE (LAYER,ROW,COL)   1     1     3 ELIMINATED BECAUSE ALL HYDRAULIC
 CONDUCTIVITIES TO NODE ARE 0
 NODE (LAYER,ROW,COL)   1     1     4 ELIMINATED BECAUSE ALL HYDRAULIC
 CONDUCTIVITIES TO NODE ARE 0
 NODE (LAYER,ROW,COL)   1     1     5 ELIMINATED BECAUSE ALL HYDRAULIC
 CONDUCTIVITIES TO NODE ARE 0
 NODE (LAYER,ROW,COL)   1     1     6 ELIMINATED BECAUSE ALL HYDRAULIC
 CONDUCTIVITIES TO NODE ARE 0
 NODE (LAYER,ROW,COL)   1     1     7 ELIMINATED BECAUSE ALL HYDRAULIC
 CONDUCTIVITIES TO NODE ARE 0
 NODE (LAYER,ROW,COL)   1     1     8 ELIMINATED BECAUSE ALL HYDRAULIC
 CONDUCTIVITIES TO NODE ARE 0
 NODE (LAYER,ROW,COL)   1     1     9 ELIMINATED BECAUSE ALL HYDRAULIC
 CONDUCTIVITIES TO NODE ARE 0
 NODE (LAYER,ROW,COL)   1     1    10 ELIMINATED BECAUSE ALL HYDRAULIC
 CONDUCTIVITIES TO NODE ARE 0
 NODE (LAYER,ROW,COL)   1     1    11 ELIMINATED BECAUSE ALL HYDRAULIC
 CONDUCTIVITIES TO NODE ARE 0
 NODE (LAYER,ROW,COL)   1     1    12 ELIMINATED BECAUSE ALL HYDRAULIC
 CONDUCTIVITIES TO NODE ARE 0
 NODE (LAYER,ROW,COL)   1     1    13 ELIMINATED BECAUSE ALL HYDRAULIC
 CONDUCTIVITIES TO NODE ARE 0
 NODE (LAYER,ROW,COL)   1     1    14 ELIMINATED BECAUSE ALL HYDRAULIC
 CONDUCTIVITIES TO NODE ARE 0
 NODE (LAYER,ROW,COL)   1     1    15 ELIMINATED BECAUSE ALL HYDRAULIC
 CONDUCTIVITIES TO NODE ARE 0
 NODE (LAYER,ROW,COL)   1     1    16 ELIMINATED BECAUSE ALL HYDRAULIC
 CONDUCTIVITIES TO NODE ARE 0
 NODE (LAYER,ROW,COL)   1     1    17 ELIMINATED BECAUSE ALL HYDRAULIC
 CONDUCTIVITIES TO NODE ARE 0
 NODE (LAYER,ROW,COL)   1     1    18 ELIMINATED BECAUSE ALL HYDRAULIC
 CONDUCTIVITIES TO NODE ARE 0
 NODE (LAYER,ROW,COL)   1     1    19 ELIMINATED BECAUSE ALL HYDRAULIC
 CONDUCTIVITIES TO NODE ARE 0
 NODE (LAYER,ROW,COL)   1     1    20 ELIMINATED BECAUSE ALL HYDRAULIC
 CONDUCTIVITIES TO NODE ARE 0
 NODE (LAYER,ROW,COL)   1     1    21 ELIMINATED BECAUSE ALL HYDRAULIC
 CONDUCTIVITIES TO NODE ARE 0
 NODE (LAYER,ROW,COL)   1     1    22 ELIMINATED BECAUSE ALL HYDRAULIC
 CONDUCTIVITIES TO NODE ARE 0
 NODE (LAYER,ROW,COL)   1     1    23 ELIMINATED BECAUSE ALL HYDRAULIC
 CONDUCTIVITIES TO NODE ARE 0
 NODE (LAYER,ROW,COL)   1     1    24 ELIMINATED BECAUSE ALL HYDRAULIC
 CONDUCTIVITIES TO NODE ARE 0
 NODE (LAYER,ROW,COL)   1     1    25 ELIMINATED BECAUSE ALL HYDRAULIC
 CONDUCTIVITIES TO NODE ARE 0
 NODE (LAYER,ROW,COL)   1     1    26 ELIMINATED BECAUSE ALL HYDRAULIC
 CONDUCTIVITIES TO NODE ARE 0
 NODE (LAYER,ROW,COL)   1     1    27 ELIMINATED BECAUSE ALL HYDRAULIC
 CONDUCTIVITIES TO NODE ARE 0
 NODE (LAYER,ROW,COL)   1     1    28 ELIMINATED BECAUSE ALL HYDRAULIC
 CONDUCTIVITIES TO NODE ARE 0
 NODE (LAYER,ROW,COL)   1     1    29 ELIMINATED BECAUSE ALL HYDRAULIC
 CONDUCTIVITIES TO NODE ARE 0
 NODE (LAYER,ROW,COL)   1     1    30 ELIMINATED BECAUSE ALL HYDRAULIC
 CONDUCTIVITIES TO NODE ARE 0
 NODE (LAYER,ROW,COL)   1     1    31 ELIMINATED BECAUSE ALL HYDRAULIC
 CONDUCTIVITIES TO NODE ARE 0
 NODE (LAYER,ROW,COL)   1     1    32 ELIMINATED BECAUSE ALL HYDRAULIC
 CONDUCTIVITIES TO NODE ARE 0
 NODE (LAYER,ROW,COL)   1     1    33 ELIMINATED BECAUSE ALL HYDRAULIC
 CONDUCTIVITIES TO NODE ARE 0
 NODE (LAYER,ROW,COL)   1     1    34 ELIMINATED BECAUSE ALL HYDRAULIC
 CONDUCTIVITIES TO NODE ARE 0
 NODE (LAYER,ROW,COL)   1     1    35 ELIMINATED BECAUSE ALL HYDRAULIC
 CONDUCTIVITIES TO NODE ARE 0
 NODE (LAYER,ROW,COL)   1     1    36 ELIMINATED BECAUSE ALL HYDRAULIC
 CONDUCTIVITIES TO NODE ARE 0
 NODE (LAYER,ROW,COL)   1     1    37 ELIMINATED BECAUSE ALL HYDRAULIC
 CONDUCTIVITIES TO NODE ARE 0
 NODE (LAYER,ROW,COL)   1     1    38 ELIMINATED BECAUSE ALL HYDRAULIC
 CONDUCTIVITIES TO NODE ARE 0
 NODE (LAYER,ROW,COL)   1     1    39 ELIMINATED BECAUSE ALL HYDRAULIC
 CONDUCTIVITIES TO NODE ARE 0
 NODE (LAYER,ROW,COL)   1     1    40 ELIMINATED BECAUSE ALL HYDRAULIC
 CONDUCTIVITIES TO NODE ARE 0
 NODE (LAYER,ROW,COL)   1     1    41 ELIMINATED BECAUSE ALL HYDRAULIC
 CONDUCTIVITIES TO NODE ARE 0
 NODE (LAYER,ROW,COL)   1     1    42 ELIMINATED BECAUSE ALL HYDRAULIC
 CONDUCTIVITIES TO NODE ARE 0
 NODE (LAYER,ROW,COL)   1     1    43 ELIMINATED BECAUSE ALL HYDRAULIC
 CONDUCTIVITIES TO NODE ARE 0
 NODE (LAYER,ROW,COL)   1     1    44 ELIMINATED BECAUSE ALL HYDRAULIC
 CONDUCTIVITIES TO NODE ARE 0
 NODE (LAYER,ROW,COL)   1     1    45 ELIMINATED BECAUSE ALL HYDRAULIC
 CONDUCTIVITIES TO NODE ARE 0
 NODE (LAYER,ROW,COL)   1     1    46 ELIMINATED BECAUSE ALL HYDRAULIC
 CONDUCTIVITIES TO NODE ARE 0
 NODE (LAYER,ROW,COL)   1     1    47 ELIMINATED BECAUSE ALL HYDRAULIC
 CONDUCTIVITIES TO NODE ARE 0
 NODE (LAYER,ROW,COL)   1     1    48 ELIMINATED BECAUSE ALL HYDRAULIC
 CONDUCTIVITIES TO NODE ARE 0
 NODE (LAYER,ROW,COL)   1     1    49 ELIMINATED BECAUSE ALL HYDRAULIC
 CONDUCTIVITIES TO NODE ARE 0
 NODE (LAYER,ROW,COL)   1     1    50 ELIMINATED BECAUSE ALL HYDRAULIC
 CONDUCTIVITIES TO NODE ARE 0
 NODE (LAYER,ROW,COL)   1     1    64 ELIMINATED BECAUSE ALL HYDRAULIC
 CONDUCTIVITIES TO NODE ARE 0
 NODE (LAYER,ROW,COL)   1     1    65 ELIMINATED BECAUSE ALL HYDRAULIC
 CONDUCTIVITIES TO NODE ARE 0
 NODE (LAYER,ROW,COL)   1     1    66 ELIMINATED BECAUSE ALL HYDRAULIC
 CONDUCTIVITIES TO NODE ARE 0
 NODE (LAYER,ROW,COL)   1     1    67 ELIMINATED BECAUSE ALL HYDRAULIC
 CONDUCTIVITIES TO NODE ARE 0
 NODE (LAYER,ROW,COL)   1     1    68 ELIMINATED BECAUSE ALL HYDRAULIC
 CONDUCTIVITIES TO NODE ARE 0
 NODE (LAYER,ROW,COL)   1     1    69 ELIMINATED BECAUSE ALL HYDRAULIC
 CONDUCTIVITIES TO NODE ARE 0
 NODE (LAYER,ROW,COL)   1     1    70 ELIMINATED BECAUSE ALL HYDRAULIC
 CONDUCTIVITIES TO NODE ARE 0
 NODE (LAYER,ROW,COL)   1     1    71 ELIMINATED BECAUSE ALL HYDRAULIC
 CONDUCTIVITIES TO NODE ARE 0
 NODE (LAYER,ROW,COL)   1     1    72 ELIMINATED BECAUSE ALL HYDRAULIC
 CONDUCTIVITIES TO NODE ARE 0
 NODE (LAYER,ROW,COL)   1     1    73 ELIMINATED BECAUSE ALL HYDRAULIC
 CONDUCTIVITIES TO NODE ARE 0
 NODE (LAYER,ROW,COL)   1     1    74 ELIMINATED BECAUSE ALL HYDRAULIC
 CONDUCTIVITIES TO NODE ARE 0
 NODE (LAYER,ROW,COL)   1     1    75 ELIMINATED BECAUSE ALL HYDRAULIC
 CONDUCTIVITIES TO NODE ARE 0
 NODE (LAYER,ROW,COL)   1     1    76 ELIMINATED BECAUSE ALL HYDRAULIC
 CONDUCTIVITIES TO NODE ARE 0
 NODE (LAYER,ROW,COL)   1     1    77 ELIMINATED BECAUSE ALL HYDRAULIC
 CONDUCTIVITIES TO NODE ARE 0
 NODE (LAYER,ROW,COL)   1     1    78 ELIMINATED BECAUSE ALL HYDRAULIC
 CONDUCTIVITIES TO NODE ARE 0
 NODE (LAYER,ROW,COL)   1     1    79 ELIMINATED BECAUSE ALL HYDRAULIC
 CONDUCTIVITIES TO NODE ARE 0
 NODE (LAYER,ROW,COL)   1     1    80 ELIMINATED BECAUSE ALL HYDRAULIC
 CONDUCTIVITIES TO NODE ARE 0
 NODE (LAYER,ROW,COL)   1     1    81 ELIMINATED BECAUSE ALL HYDRAULIC
 CONDUCTIVITIES TO NODE ARE 0
 NODE (LAYER,ROW,COL)   1     1    82 ELIMINATED BECAUSE ALL HYDRAULIC
 CONDUCTIVITIES TO NODE ARE 0
 NODE (LAYER,ROW,COL)   1     1    83 ELIMINATED BECAUSE ALL HYDRAULIC
 CONDUCTIVITIES TO NODE ARE 0
 NODE (LAYER,ROW,COL)   1     1    84 ELIMINATED BECAUSE ALL HYDRAULIC
 CONDUCTIVITIES TO NODE ARE 0
 NODE (LAYER,ROW,COL)   1     1    85 ELIMINATED BECAUSE ALL HYDRAULIC
 CONDUCTIVITIES TO NODE ARE 0
 NODE (LAYER,ROW,COL)   1     1    86 ELIMINATED BECAUSE ALL HYDRAULIC
 CONDUCTIVITIES TO NODE ARE 0
 NODE (LAYER,ROW,COL)   1     1    87 ELIMINATED BECAUSE ALL HYDRAULIC
 CONDUCTIVITIES TO NODE ARE 0
 NODE (LAYER,ROW,COL)   1     1    88 ELIMINATED BECAUSE ALL HYDRAULIC
 CONDUCTIVITIES TO NODE ARE 0
 NODE (LAYER,ROW,COL)   1     1    89 ELIMINATED BECAUSE ALL HYDRAULIC
 CONDUCTIVITIES TO NODE ARE 0
 NODE (LAYER,ROW,COL)   1     1    90 ELIMINATED BECAUSE ALL HYDRAULIC
 CONDUCTIVITIES TO NODE ARE 0
 NODE (LAYER,ROW,COL)   1     1    91 ELIMINATED BECAUSE ALL HYDRAULIC
 CONDUCTIVITIES TO NODE ARE 0
 NODE (LAYER,ROW,COL)   1     1    92 ELIMINATED BECAUSE ALL HYDRAULIC
 CONDUCTIVITIES TO NODE ARE 0
 NODE (LAYER,ROW,COL)   1     1    93 ELIMINATED BECAUSE ALL HYDRAULIC
 CONDUCTIVITIES TO NODE ARE 0
 NODE (LAYER,ROW,COL)   1     1    94 ELIMINATED BECAUSE ALL HYDRAULIC
 CONDUCTIVITIES TO NODE ARE 0
 NODE (LAYER,ROW,COL)   1     1    95 ELIMINATED BECAUSE ALL HYDRAULIC
 CONDUCTIVITIES TO NODE ARE 0
 NODE (LAYER,ROW,COL)   1     1    96 ELIMINATED BECAUSE ALL HYDRAULIC
 CONDUCTIVITIES TO NODE ARE 0
 NODE (LAYER,ROW,COL)   1     1    97 ELIMINATED BECAUSE ALL HYDRAULIC
 CONDUCTIVITIES TO NODE ARE 0
 NODE (LAYER,ROW,COL)   1     1    98 ELIMINATED BECAUSE ALL HYDRAULIC
 CONDUCTIVITIES TO NODE ARE 0
 NODE (LAYER,ROW,COL)   1     1    99 ELIMINATED BECAUSE ALL HYDRAULIC
 CONDUCTIVITIES TO NODE ARE 0
 NODE (LAYER,ROW,COL)   1     1   100 ELIMINATED BECAUSE ALL HYDRAULIC
 CONDUCTIVITIES TO NODE ARE 0
 NODE (LAYER,ROW,COL)   1     1   101 ELIMINATED BECAUSE ALL HYDRAULIC
 CONDUCTIVITIES TO NODE ARE 0
 NODE (LAYER,ROW,COL)   1     1   102 ELIMINATED BECAUSE ALL HYDRAULIC
 CONDUCTIVITIES TO NODE ARE 0
 NODE (LAYER,ROW,COL)   1     1   103 ELIMINATED BECAUSE ALL HYDRAULIC
 CONDUCTIVITIES TO NODE ARE 0
 NODE (LAYER,ROW,COL)   1     1   104 ELIMINATED BECAUSE ALL HYDRAULIC
 CONDUCTIVITIES TO NODE ARE 0
 NODE (LAYER,ROW,COL)   1     1   105 ELIMINATED BECAUSE ALL HYDRAULIC
 CONDUCTIVITIES TO NODE ARE 0
 NODE (LAYER,ROW,COL)   1     1   106 ELIMINATED BECAUSE ALL HYDRAULIC
 CONDUCTIVITIES TO NODE ARE 0
 NODE (LAYER,ROW,COL)   1     1   107 ELIMINATED BECAUSE ALL HYDRAULIC
 CONDUCTIVITIES TO NODE ARE 0
 NODE (LAYER,ROW,COL)   1     1   108 ELIMINATED BECAUSE ALL HYDRAULIC
 CONDUCTIVITIES TO NODE ARE 0
 NODE (LAYER,ROW,COL)   1     1   109 ELIMINATED BECAUSE ALL HYDRAULIC
 CONDUCTIVITIES TO NODE ARE 0
 NODE (LAYER,ROW,COL)   1     1   110 ELIMINATED BECAUSE ALL HYDRAULIC
 CONDUCTIVITIES TO NODE ARE 0
 NODE (LAYER,ROW,COL)   1     1   111 ELIMINATED BECAUSE ALL HYDRAULIC
 CONDUCTIVITIES TO NODE ARE 0
 NODE (LAYER,ROW,COL)   1     1   112 ELIMINATED BECAUSE ALL HYDRAULIC
 CONDUCTIVITIES TO NODE ARE 0
 NODE (LAYER,ROW,COL)   1     1   113 ELIMINATED BECAUSE ALL HYDRAULIC
 CONDUCTIVITIES TO NODE ARE 0
 NODE (LAYER,ROW,COL)   2     1     1 ELIMINATED BECAUSE ALL HYDRAULIC
 CONDUCTIVITIES TO NODE ARE 0
 NODE (LAYER,ROW,COL)   2     1     2 ELIMINATED BECAUSE ALL HYDRAULIC
 CONDUCTIVITIES TO NODE ARE 0
 NODE (LAYER,ROW,COL)   2     1     3 ELIMINATED BECAUSE ALL HYDRAULIC
 CONDUCTIVITIES TO NODE ARE 0
 NODE (LAYER,ROW,COL)   2     1     4 ELIMINATED BECAUSE ALL HYDRAULIC
 CONDUCTIVITIES TO NODE ARE 0
 NODE (LAYER,ROW,COL)   2     1     5 ELIMINATED BECAUSE ALL HYDRAULIC
 CONDUCTIVITIES TO NODE ARE 0
 NODE (LAYER,ROW,COL)   2     1     6 ELIMINATED BECAUSE ALL HYDRAULIC
 CONDUCTIVITIES TO NODE ARE 0
 NODE (LAYER,ROW,COL)   2     1     7 ELIMINATED BECAUSE ALL HYDRAULIC
 CONDUCTIVITIES TO NODE ARE 0
 NODE (LAYER,ROW,COL)   2     1     8 ELIMINATED BECAUSE ALL HYDRAULIC
 CONDUCTIVITIES TO NODE ARE 0
 NODE (LAYER,ROW,COL)   2     1     9 ELIMINATED BECAUSE ALL HYDRAULIC
 CONDUCTIVITIES TO NODE ARE 0
 NODE (LAYER,ROW,COL)   2     1    10 ELIMINATED BECAUSE ALL HYDRAULIC
 CONDUCTIVITIES TO NODE ARE 0
 NODE (LAYER,ROW,COL)   2     1    11 ELIMINATED BECAUSE ALL HYDRAULIC
 CONDUCTIVITIES TO NODE ARE 0
 NODE (LAYER,ROW,COL)   2     1    12 ELIMINATED BECAUSE ALL HYDRAULIC
 CONDUCTIVITIES TO NODE ARE 0
 NODE (LAYER,ROW,COL)   2     1    13 ELIMINATED BECAUSE ALL HYDRAULIC
 CONDUCTIVITIES TO NODE ARE 0
 NODE (LAYER,ROW,COL)   2     1    14 ELIMINATED BECAUSE ALL HYDRAULIC
 CONDUCTIVITIES TO NODE ARE 0
 NODE (LAYER,ROW,COL)   2     1    15 ELIMINATED BECAUSE ALL HYDRAULIC
 CONDUCTIVITIES TO NODE ARE 0
 NODE (LAYER,ROW,COL)   2     1    16 ELIMINATED BECAUSE ALL HYDRAULIC
 CONDUCTIVITIES TO NODE ARE 0
 NODE (LAYER,ROW,COL)   2     1    17 ELIMINATED BECAUSE ALL HYDRAULIC
 CONDUCTIVITIES TO NODE ARE 0
 NODE (LAYER,ROW,COL)   2     1    18 ELIMINATED BECAUSE ALL HYDRAULIC
 CONDUCTIVITIES TO NODE ARE 0
 NODE (LAYER,ROW,COL)   2     1    19 ELIMINATED BECAUSE ALL HYDRAULIC
 CONDUCTIVITIES TO NODE ARE 0
 NODE (LAYER,ROW,COL)   2     1    20 ELIMINATED BECAUSE ALL HYDRAULIC
 CONDUCTIVITIES TO NODE ARE 0
 NODE (LAYER,ROW,COL)   2     1    21 ELIMINATED BECAUSE ALL HYDRAULIC
 CONDUCTIVITIES TO NODE ARE 0
 NODE (LAYER,ROW,COL)   2     1    22 ELIMINATED BECAUSE ALL HYDRAULIC
 CONDUCTIVITIES TO NODE ARE 0
 NODE (LAYER,ROW,COL)   2     1    23 ELIMINATED BECAUSE ALL HYDRAULIC
 CONDUCTIVITIES TO NODE ARE 0
 NODE (LAYER,ROW,COL)   2     1    24 ELIMINATED BECAUSE ALL HYDRAULIC
 CONDUCTIVITIES TO NODE ARE 0
 NODE (LAYER,ROW,COL)   2     1    25 ELIMINATED BECAUSE ALL HYDRAULIC
 CONDUCTIVITIES TO NODE ARE 0
 NODE (LAYER,ROW,COL)   2     1    26 ELIMINATED BECAUSE ALL HYDRAULIC
 CONDUCTIVITIES TO NODE ARE 0
 NODE (LAYER,ROW,COL)   2     1    27 ELIMINATED BECAUSE ALL HYDRAULIC
 CONDUCTIVITIES TO NODE ARE 0
 NODE (LAYER,ROW,COL)   2     1    28 ELIMINATED BECAUSE ALL HYDRAULIC
 CONDUCTIVITIES TO NODE ARE 0
 NODE (LAYER,ROW,COL)   2     1    29 ELIMINATED BECAUSE ALL HYDRAULIC
 CONDUCTIVITIES TO NODE ARE 0
 NODE (LAYER,ROW,COL)   2     1    30 ELIMINATED BECAUSE ALL HYDRAULIC
 CONDUCTIVITIES TO NODE ARE 0
 NODE (LAYER,ROW,COL)   2     1    31 ELIMINATED BECAUSE ALL HYDRAULIC
 CONDUCTIVITIES TO NODE ARE 0
 NODE (LAYER,ROW,COL)   2     1    32 ELIMINATED BECAUSE ALL HYDRAULIC
 CONDUCTIVITIES TO NODE ARE 0
 NODE (LAYER,ROW,COL)   2     1    33 ELIMINATED BECAUSE ALL HYDRAULIC
 CONDUCTIVITIES TO NODE ARE 0
 NODE (LAYER,ROW,COL)   2     1    34 ELIMINATED BECAUSE ALL HYDRAULIC
 CONDUCTIVITIES TO NODE ARE 0
 NODE (LAYER,ROW,COL)   2     1    35 ELIMINATED BECAUSE ALL HYDRAULIC
 CONDUCTIVITIES TO NODE ARE 0
 NODE (LAYER,ROW,COL)   2     1    36 ELIMINATED BECAUSE ALL HYDRAULIC
 CONDUCTIVITIES TO NODE ARE 0
 NODE (LAYER,ROW,COL)   2     1    37 ELIMINATED BECAUSE ALL HYDRAULIC
 CONDUCTIVITIES TO NODE ARE 0
 NODE (LAYER,ROW,COL)   2     1    38 ELIMINATED BECAUSE ALL HYDRAULIC
 CONDUCTIVITIES TO NODE ARE 0
 NODE (LAYER,ROW,COL)   2     1    39 ELIMINATED BECAUSE ALL HYDRAULIC
 CONDUCTIVITIES TO NODE ARE 0
 NODE (LAYER,ROW,COL)   2     1    40 ELIMINATED BECAUSE ALL HYDRAULIC
 CONDUCTIVITIES TO NODE ARE 0
 NODE (LAYER,ROW,COL)   2     1    41 ELIMINATED BECAUSE ALL HYDRAULIC
 CONDUCTIVITIES TO NODE ARE 0
 NODE (LAYER,ROW,COL)   2     1    42 ELIMINATED BECAUSE ALL HYDRAULIC
 CONDUCTIVITIES TO NODE ARE 0
 NODE (LAYER,ROW,COL)   2     1    43 ELIMINATED BECAUSE ALL HYDRAULIC
 CONDUCTIVITIES TO NODE ARE 0
 NODE (LAYER,ROW,COL)   2     1    44 ELIMINATED BECAUSE ALL HYDRAULIC
 CONDUCTIVITIES TO NODE ARE 0
 NODE (LAYER,ROW,COL)   2     1    45 ELIMINATED BECAUSE ALL HYDRAULIC
 CONDUCTIVITIES TO NODE ARE 0
 NODE (LAYER,ROW,COL)   2     1    46 ELIMINATED BECAUSE ALL HYDRAULIC
 CONDUCTIVITIES TO NODE ARE 0
 NODE (LAYER,ROW,COL)   2     1    47 ELIMINATED BECAUSE ALL HYDRAULIC
 CONDUCTIVITIES TO NODE ARE 0
 NODE (LAYER,ROW,COL)   2     1    48 ELIMINATED BECAUSE ALL HYDRAULIC
 CONDUCTIVITIES TO NODE ARE 0
 NODE (LAYER,ROW,COL)   2     1    49 ELIMINATED BECAUSE ALL HYDRAULIC
 CONDUCTIVITIES TO NODE ARE 0
 NODE (LAYER,ROW,COL)   2     1    65 ELIMINATED BECAUSE ALL HYDRAULIC
 CONDUCTIVITIES TO NODE ARE 0
 NODE (LAYER,ROW,COL)   2     1    66 ELIMINATED BECAUSE ALL HYDRAULIC
 CONDUCTIVITIES TO NODE ARE 0
 NODE (LAYER,ROW,COL)   2     1    67 ELIMINATED BECAUSE ALL HYDRAULIC
 CONDUCTIVITIES TO NODE ARE 0
 NODE (LAYER,ROW,COL)   2     1    68 ELIMINATED BECAUSE ALL HYDRAULIC
 CONDUCTIVITIES TO NODE ARE 0
 NODE (LAYER,ROW,COL)   2     1    69 ELIMINATED BECAUSE ALL HYDRAULIC
 CONDUCTIVITIES TO NODE ARE 0
 NODE (LAYER,ROW,COL)   2     1    70 ELIMINATED BECAUSE ALL HYDRAULIC
 CONDUCTIVITIES TO NODE ARE 0
 NODE (LAYER,ROW,COL)   2     1    71 ELIMINATED BECAUSE ALL HYDRAULIC
 CONDUCTIVITIES TO NODE ARE 0
 NODE (LAYER,ROW,COL)   2     1    72 ELIMINATED BECAUSE ALL HYDRAULIC
 CONDUCTIVITIES TO NODE ARE 0
 NODE (LAYER,ROW,COL)   2     1    73 ELIMINATED BECAUSE ALL HYDRAULIC
 CONDUCTIVITIES TO NODE ARE 0
 NODE (LAYER,ROW,COL)   2     1    74 ELIMINATED BECAUSE ALL HYDRAULIC
 CONDUCTIVITIES TO NODE ARE 0
 NODE (LAYER,ROW,COL)   2     1    75 ELIMINATED BECAUSE ALL HYDRAULIC
 CONDUCTIVITIES TO NODE ARE 0
 NODE (LAYER,ROW,COL)   2     1    76 ELIMINATED BECAUSE ALL HYDRAULIC
 CONDUCTIVITIES TO NODE ARE 0
 NODE (LAYER,ROW,COL)   2     1    77 ELIMINATED BECAUSE ALL HYDRAULIC
 CONDUCTIVITIES TO NODE ARE 0
 NODE (LAYER,ROW,COL)   2     1    78 ELIMINATED BECAUSE ALL HYDRAULIC
 CONDUCTIVITIES TO NODE ARE 0
 NODE (LAYER,ROW,COL)   2     1    79 ELIMINATED BECAUSE ALL HYDRAULIC
 CONDUCTIVITIES TO NODE ARE 0
 NODE (LAYER,ROW,COL)   2     1    80 ELIMINATED BECAUSE ALL HYDRAULIC
 CONDUCTIVITIES TO NODE ARE 0
 NODE (LAYER,ROW,COL)   2     1    81 ELIMINATED BECAUSE ALL HYDRAULIC
 CONDUCTIVITIES TO NODE ARE 0
 NODE (LAYER,ROW,COL)   2     1    82 ELIMINATED BECAUSE ALL HYDRAULIC
 CONDUCTIVITIES TO NODE ARE 0
 NODE (LAYER,ROW,COL)   2     1    83 ELIMINATED BECAUSE ALL HYDRAULIC
 CONDUCTIVITIES TO NODE ARE 0
 NODE (LAYER,ROW,COL)   2     1    84 ELIMINATED BECAUSE ALL HYDRAULIC
 CONDUCTIVITIES TO NODE ARE 0
 NODE (LAYER,ROW,COL)   2     1    85 ELIMINATED BECAUSE ALL HYDRAULIC
 CONDUCTIVITIES TO NODE ARE 0
 NODE (LAYER,ROW,COL)   2     1    86 ELIMINATED BECAUSE ALL HYDRAULIC
 CONDUCTIVITIES TO NODE ARE 0
 NODE (LAYER,ROW,COL)   2     1    87 ELIMINATED BECAUSE ALL HYDRAULIC
 CONDUCTIVITIES TO NODE ARE 0
 NODE (LAYER,ROW,COL)   2     1    88 ELIMINATED BECAUSE ALL HYDRAULIC
 CONDUCTIVITIES TO NODE ARE 0
 NODE (LAYER,ROW,COL)   2     1    89 ELIMINATED BECAUSE ALL HYDRAULIC
 CONDUCTIVITIES TO NODE ARE 0
 NODE (LAYER,ROW,COL)   2     1    90 ELIMINATED BECAUSE ALL HYDRAULIC
 CONDUCTIVITIES TO NODE ARE 0
 NODE (LAYER,ROW,COL)   2     1    91 ELIMINATED BECAUSE ALL HYDRAULIC
 CONDUCTIVITIES TO NODE ARE 0
 NODE (LAYER,ROW,COL)   2     1    92 ELIMINATED BECAUSE ALL HYDRAULIC
 CONDUCTIVITIES TO NODE ARE 0
 NODE (LAYER,ROW,COL)   2     1    93 ELIMINATED BECAUSE ALL HYDRAULIC
 CONDUCTIVITIES TO NODE ARE 0
 NODE (LAYER,ROW,COL)   2     1    94 ELIMINATED BECAUSE ALL HYDRAULIC
 CONDUCTIVITIES TO NODE ARE 0
 NODE (LAYER,ROW,COL)   2     1    95 ELIMINATED BECAUSE ALL HYDRAULIC
 CONDUCTIVITIES TO NODE ARE 0
 NODE (LAYER,ROW,COL)   2     1    96 ELIMINATED BECAUSE ALL HYDRAULIC
 CONDUCTIVITIES TO NODE ARE 0
 NODE (LAYER,ROW,COL)   2     1    97 ELIMINATED BECAUSE ALL HYDRAULIC
 CONDUCTIVITIES TO NODE ARE 0
 NODE (LAYER,ROW,COL)   2     1    98 ELIMINATED BECAUSE ALL HYDRAULIC
 CONDUCTIVITIES TO NODE ARE 0
 NODE (LAYER,ROW,COL)   2     1    99 ELIMINATED BECAUSE ALL HYDRAULIC
 CONDUCTIVITIES TO NODE ARE 0
 NODE (LAYER,ROW,COL)   2     1   100 ELIMINATED BECAUSE ALL HYDRAULIC
 CONDUCTIVITIES TO NODE ARE 0
 NODE (LAYER,ROW,COL)   2     1   101 ELIMINATED BECAUSE ALL HYDRAULIC
 CONDUCTIVITIES TO NODE ARE 0
 NODE (LAYER,ROW,COL)   2     1   102 ELIMINATED BECAUSE ALL HYDRAULIC
 CONDUCTIVITIES TO NODE ARE 0
 NODE (LAYER,ROW,COL)   2     1   103 ELIMINATED BECAUSE ALL HYDRAULIC
 CONDUCTIVITIES TO NODE ARE 0
 NODE (LAYER,ROW,COL)   2     1   104 ELIMINATED BECAUSE ALL HYDRAULIC
 CONDUCTIVITIES TO NODE ARE 0
 NODE (LAYER,ROW,COL)   2     1   105 ELIMINATED BECAUSE ALL HYDRAULIC
 CONDUCTIVITIES TO NODE ARE 0
 NODE (LAYER,ROW,COL)   2     1   106 ELIMINATED BECAUSE ALL HYDRAULIC
 CONDUCTIVITIES TO NODE ARE 0
 NODE (LAYER,ROW,COL)   2     1   107 ELIMINATED BECAUSE ALL HYDRAULIC
 CONDUCTIVITIES TO NODE ARE 0
 NODE (LAYER,ROW,COL)   2     1   108 ELIMINATED BECAUSE ALL HYDRAULIC
 CONDUCTIVITIES TO NODE ARE 0
 NODE (LAYER,ROW,COL)   2     1   109 ELIMINATED BECAUSE ALL HYDRAULIC
 CONDUCTIVITIES TO NODE ARE 0
 NODE (LAYER,ROW,COL)   2     1   110 ELIMINATED BECAUSE ALL HYDRAULIC
 CONDUCTIVITIES TO NODE ARE 0
 NODE (LAYER,ROW,COL)   2     1   111 ELIMINATED BECAUSE ALL HYDRAULIC
 CONDUCTIVITIES TO NODE ARE 0
 NODE (LAYER,ROW,COL)   2     1   112 ELIMINATED BECAUSE ALL HYDRAULIC
 CONDUCTIVITIES TO NODE ARE 0
 NODE (LAYER,ROW,COL)   2     1   113 ELIMINATED BECAUSE ALL HYDRAULIC
 CONDUCTIVITIES TO NODE ARE 0
 NODE (LAYER,ROW,COL)   3     1     1 ELIMINATED BECAUSE ALL HYDRAULIC
 CONDUCTIVITIES TO NODE ARE 0
 NODE (LAYER,ROW,COL)   3     1     2 ELIMINATED BECAUSE ALL HYDRAULIC
 CONDUCTIVITIES TO NODE ARE 0
 NODE (LAYER,ROW,COL)   3     1     3 ELIMINATED BECAUSE ALL HYDRAULIC
 CONDUCTIVITIES TO NODE ARE 0
 NODE (LAYER,ROW,COL)   3     1     4 ELIMINATED BECAUSE ALL HYDRAULIC
 CONDUCTIVITIES TO NODE ARE 0
 NODE (LAYER,ROW,COL)   3     1     5 ELIMINATED BECAUSE ALL HYDRAULIC
 CONDUCTIVITIES TO NODE ARE 0
 NODE (LAYER,ROW,COL)   3     1     6 ELIMINATED BECAUSE ALL HYDRAULIC
 CONDUCTIVITIES TO NODE ARE 0
 NODE (LAYER,ROW,COL)   3     1     7 ELIMINATED BECAUSE ALL HYDRAULIC
 CONDUCTIVITIES TO NODE ARE 0
 NODE (LAYER,ROW,COL)   3     1     8 ELIMINATED BECAUSE ALL HYDRAULIC
 CONDUCTIVITIES TO NODE ARE 0
 NODE (LAYER,ROW,COL)   3     1     9 ELIMINATED BECAUSE ALL HYDRAULIC
 CONDUCTIVITIES TO NODE ARE 0
 NODE (LAYER,ROW,COL)   3     1    10 ELIMINATED BECAUSE ALL HYDRAULIC
 CONDUCTIVITIES TO NODE ARE 0
 NODE (LAYER,ROW,COL)   3     1    11 ELIMINATED BECAUSE ALL HYDRAULIC
 CONDUCTIVITIES TO NODE ARE 0
 NODE (LAYER,ROW,COL)   3     1    12 ELIMINATED BECAUSE ALL HYDRAULIC
 CONDUCTIVITIES TO NODE ARE 0
 NODE (LAYER,ROW,COL)   3     1    13 ELIMINATED BECAUSE ALL HYDRAULIC
 CONDUCTIVITIES TO NODE ARE 0
 NODE (LAYER,ROW,COL)   3     1    14 ELIMINATED BECAUSE ALL HYDRAULIC
 CONDUCTIVITIES TO NODE ARE 0
 NODE (LAYER,ROW,COL)   3     1    15 ELIMINATED BECAUSE ALL HYDRAULIC
 CONDUCTIVITIES TO NODE ARE 0
 NODE (LAYER,ROW,COL)   3     1    16 ELIMINATED BECAUSE ALL HYDRAULIC
 CONDUCTIVITIES TO NODE ARE 0
 NODE (LAYER,ROW,COL)   3     1    17 ELIMINATED BECAUSE ALL HYDRAULIC
 CONDUCTIVITIES TO NODE ARE 0
 NODE (LAYER,ROW,COL)   3     1    18 ELIMINATED BECAUSE ALL HYDRAULIC
 CONDUCTIVITIES TO NODE ARE 0
 NODE (LAYER,ROW,COL)   3     1    19 ELIMINATED BECAUSE ALL HYDRAULIC
 CONDUCTIVITIES TO NODE ARE 0
 NODE (LAYER,ROW,COL)   3     1    20 ELIMINATED BECAUSE ALL HYDRAULIC
 CONDUCTIVITIES TO NODE ARE 0
 NODE (LAYER,ROW,COL)   3     1    21 ELIMINATED BECAUSE ALL HYDRAULIC
 CONDUCTIVITIES TO NODE ARE 0
 NODE (LAYER,ROW,COL)   3     1    22 ELIMINATED BECAUSE ALL HYDRAULIC
 CONDUCTIVITIES TO NODE ARE 0
 NODE (LAYER,ROW,COL)   3     1    23 ELIMINATED BECAUSE ALL HYDRAULIC
 CONDUCTIVITIES TO NODE ARE 0
 NODE (LAYER,ROW,COL)   3     1    24 ELIMINATED BECAUSE ALL HYDRAULIC
 CONDUCTIVITIES TO NODE ARE 0
 NODE (LAYER,ROW,COL)   3     1    25 ELIMINATED BECAUSE ALL HYDRAULIC
 CONDUCTIVITIES TO NODE ARE 0
 NODE (LAYER,ROW,COL)   3     1    26 ELIMINATED BECAUSE ALL HYDRAULIC
 CONDUCTIVITIES TO NODE ARE 0
 NODE (LAYER,ROW,COL)   3     1    27 ELIMINATED BECAUSE ALL HYDRAULIC
 CONDUCTIVITIES TO NODE ARE 0
 NODE (LAYER,ROW,COL)   3     1    28 ELIMINATED BECAUSE ALL HYDRAULIC
 CONDUCTIVITIES TO NODE ARE 0
 NODE (LAYER,ROW,COL)   3     1    29 ELIMINATED BECAUSE ALL HYDRAULIC
 CONDUCTIVITIES TO NODE ARE 0
 NODE (LAYER,ROW,COL)   3     1    30 ELIMINATED BECAUSE ALL HYDRAULIC
 CONDUCTIVITIES TO NODE ARE 0
 NODE (LAYER,ROW,COL)   3     1    31 ELIMINATED BECAUSE ALL HYDRAULIC
 CONDUCTIVITIES TO NODE ARE 0
 NODE (LAYER,ROW,COL)   3     1    32 ELIMINATED BECAUSE ALL HYDRAULIC
 CONDUCTIVITIES TO NODE ARE 0
 NODE (LAYER,ROW,COL)   3     1    33 ELIMINATED BECAUSE ALL HYDRAULIC
 CONDUCTIVITIES TO NODE ARE 0
 NODE (LAYER,ROW,COL)   3     1    34 ELIMINATED BECAUSE ALL HYDRAULIC
 CONDUCTIVITIES TO NODE ARE 0
 NODE (LAYER,ROW,COL)   3     1    35 ELIMINATED BECAUSE ALL HYDRAULIC
 CONDUCTIVITIES TO NODE ARE 0
 NODE (LAYER,ROW,COL)   3     1    36 ELIMINATED BECAUSE ALL HYDRAULIC
 CONDUCTIVITIES TO NODE ARE 0
 NODE (LAYER,ROW,COL)   3     1    37 ELIMINATED BECAUSE ALL HYDRAULIC
 CONDUCTIVITIES TO NODE ARE 0
 NODE (LAYER,ROW,COL)   3     1    38 ELIMINATED BECAUSE ALL HYDRAULIC
 CONDUCTIVITIES TO NODE ARE 0
 NODE (LAYER,ROW,COL)   3     1    39 ELIMINATED BECAUSE ALL HYDRAULIC
 CONDUCTIVITIES TO NODE ARE 0
 NODE (LAYER,ROW,COL)   3     1    40 ELIMINATED BECAUSE ALL HYDRAULIC
 CONDUCTIVITIES TO NODE ARE 0
 NODE (LAYER,ROW,COL)   3     1    41 ELIMINATED BECAUSE ALL HYDRAULIC
 CONDUCTIVITIES TO NODE ARE 0
 NODE (LAYER,ROW,COL)   3     1    42 ELIMINATED BECAUSE ALL HYDRAULIC
 CONDUCTIVITIES TO NODE ARE 0
 NODE (LAYER,ROW,COL)   3     1    43 ELIMINATED BECAUSE ALL HYDRAULIC
 CONDUCTIVITIES TO NODE ARE 0
 NODE (LAYER,ROW,COL)   3     1    44 ELIMINATED BECAUSE ALL HYDRAULIC
 CONDUCTIVITIES TO NODE ARE 0
 NODE (LAYER,ROW,COL)   3     1    45 ELIMINATED BECAUSE ALL HYDRAULIC
 CONDUCTIVITIES TO NODE ARE 0
 NODE (LAYER,ROW,COL)   3     1    46 ELIMINATED BECAUSE ALL HYDRAULIC
 CONDUCTIVITIES TO NODE ARE 0
 NODE (LAYER,ROW,COL)   3     1    47 ELIMINATED BECAUSE ALL HYDRAULIC
 CONDUCTIVITIES TO NODE ARE 0
 NODE (LAYER,ROW,COL)   3     1    48 ELIMINATED BECAUSE ALL HYDRAULIC
 CONDUCTIVITIES TO NODE ARE 0
 NODE (LAYER,ROW,COL)   3     1    66 ELIMINATED BECAUSE ALL HYDRAULIC
 CONDUCTIVITIES TO NODE ARE 0
 NODE (LAYER,ROW,COL)   3     1    67 ELIMINATED BECAUSE ALL HYDRAULIC
 CONDUCTIVITIES TO NODE ARE 0
 NODE (LAYER,ROW,COL)   3     1    68 ELIMINATED BECAUSE ALL HYDRAULIC
 CONDUCTIVITIES TO NODE ARE 0
 NODE (LAYER,ROW,COL)   3     1    69 ELIMINATED BECAUSE ALL HYDRAULIC
 CONDUCTIVITIES TO NODE ARE 0
 NODE (LAYER,ROW,COL)   3     1    70 ELIMINATED BECAUSE ALL HYDRAULIC
 CONDUCTIVITIES TO NODE ARE 0
 NODE (LAYER,ROW,COL)   3     1    71 ELIMINATED BECAUSE ALL HYDRAULIC
 CONDUCTIVITIES TO NODE ARE 0
 NODE (LAYER,ROW,COL)   3     1    72 ELIMINATED BECAUSE ALL HYDRAULIC
 CONDUCTIVITIES TO NODE ARE 0
 NODE (LAYER,ROW,COL)   3     1    73 ELIMINATED BECAUSE ALL HYDRAULIC
 CONDUCTIVITIES TO NODE ARE 0
 NODE (LAYER,ROW,COL)   3     1    74 ELIMINATED BECAUSE ALL HYDRAULIC
 CONDUCTIVITIES TO NODE ARE 0
 NODE (LAYER,ROW,COL)   3     1    75 ELIMINATED BECAUSE ALL HYDRAULIC
 CONDUCTIVITIES TO NODE ARE 0
 NODE (LAYER,ROW,COL)   3     1    76 ELIMINATED BECAUSE ALL HYDRAULIC
 CONDUCTIVITIES TO NODE ARE 0
 NODE (LAYER,ROW,COL)   3     1    77 ELIMINATED BECAUSE ALL HYDRAULIC
 CONDUCTIVITIES TO NODE ARE 0
 NODE (LAYER,ROW,COL)   3     1    78 ELIMINATED BECAUSE ALL HYDRAULIC
 CONDUCTIVITIES TO NODE ARE 0
 NODE (LAYER,ROW,COL)   3     1    79 ELIMINATED BECAUSE ALL HYDRAULIC
 CONDUCTIVITIES TO NODE ARE 0
 NODE (LAYER,ROW,COL)   3     1    80 ELIMINATED BECAUSE ALL HYDRAULIC
 CONDUCTIVITIES TO NODE ARE 0
 NODE (LAYER,ROW,COL)   3     1    81 ELIMINATED BECAUSE ALL HYDRAULIC
 CONDUCTIVITIES TO NODE ARE 0
 NODE (LAYER,ROW,COL)   3     1    82 ELIMINATED BECAUSE ALL HYDRAULIC
 CONDUCTIVITIES TO NODE ARE 0
 NODE (LAYER,ROW,COL)   3     1    83 ELIMINATED BECAUSE ALL HYDRAULIC
 CONDUCTIVITIES TO NODE ARE 0
 NODE (LAYER,ROW,COL)   3     1    84 ELIMINATED BECAUSE ALL HYDRAULIC
 CONDUCTIVITIES TO NODE ARE 0
 NODE (LAYER,ROW,COL)   3     1    85 ELIMINATED BECAUSE ALL HYDRAULIC
 CONDUCTIVITIES TO NODE ARE 0
 NODE (LAYER,ROW,COL)   3     1    86 ELIMINATED BECAUSE ALL HYDRAULIC
 CONDUCTIVITIES TO NODE ARE 0
 NODE (LAYER,ROW,COL)   3     1    87 ELIMINATED BECAUSE ALL HYDRAULIC
 CONDUCTIVITIES TO NODE ARE 0
 NODE (LAYER,ROW,COL)   3     1    88 ELIMINATED BECAUSE ALL HYDRAULIC
 CONDUCTIVITIES TO NODE ARE 0
 NODE (LAYER,ROW,COL)   3     1    89 ELIMINATED BECAUSE ALL HYDRAULIC
 CONDUCTIVITIES TO NODE ARE 0
 NODE (LAYER,ROW,COL)   3     1    90 ELIMINATED BECAUSE ALL HYDRAULIC
 CONDUCTIVITIES TO NODE ARE 0
 NODE (LAYER,ROW,COL)   3     1    91 ELIMINATED BECAUSE ALL HYDRAULIC
 CONDUCTIVITIES TO NODE ARE 0
 NODE (LAYER,ROW,COL)   3     1    92 ELIMINATED BECAUSE ALL HYDRAULIC
 CONDUCTIVITIES TO NODE ARE 0
 NODE (LAYER,ROW,COL)   3     1    93 ELIMINATED BECAUSE ALL HYDRAULIC
 CONDUCTIVITIES TO NODE ARE 0
 NODE (LAYER,ROW,COL)   3     1    94 ELIMINATED BECAUSE ALL HYDRAULIC
 CONDUCTIVITIES TO NODE ARE 0
 NODE (LAYER,ROW,COL)   3     1    95 ELIMINATED BECAUSE ALL HYDRAULIC
 CONDUCTIVITIES TO NODE ARE 0
 NODE (LAYER,ROW,COL)   3     1    96 ELIMINATED BECAUSE ALL HYDRAULIC
 CONDUCTIVITIES TO NODE ARE 0
 NODE (LAYER,ROW,COL)   3     1    97 ELIMINATED BECAUSE ALL HYDRAULIC
 CONDUCTIVITIES TO NODE ARE 0
 NODE (LAYER,ROW,COL)   3     1    98 ELIMINATED BECAUSE ALL HYDRAULIC
 CONDUCTIVITIES TO NODE ARE 0
 NODE (LAYER,ROW,COL)   3     1    99 ELIMINATED BECAUSE ALL HYDRAULIC
 CONDUCTIVITIES TO NODE ARE 0
 NODE (LAYER,ROW,COL)   3     1   100 ELIMINATED BECAUSE ALL HYDRAULIC
 CONDUCTIVITIES TO NODE ARE 0
 NODE (LAYER,ROW,COL)   3     1   101 ELIMINATED BECAUSE ALL HYDRAULIC
 CONDUCTIVITIES TO NODE ARE 0
 NODE (LAYER,ROW,COL)   3     1   102 ELIMINATED BECAUSE ALL HYDRAULIC
 CONDUCTIVITIES TO NODE ARE 0
 NODE (LAYER,ROW,COL)   3     1   103 ELIMINATED BECAUSE ALL HYDRAULIC
 CONDUCTIVITIES TO NODE ARE 0
 NODE (LAYER,ROW,COL)   3     1   104 ELIMINATED BECAUSE ALL HYDRAULIC
 CONDUCTIVITIES TO NODE ARE 0
 NODE (LAYER,ROW,COL)   3     1   105 ELIMINATED BECAUSE ALL HYDRAULIC
 CONDUCTIVITIES TO NODE ARE 0
 NODE (LAYER,ROW,COL)   3     1   106 ELIMINATED BECAUSE ALL HYDRAULIC
 CONDUCTIVITIES TO NODE ARE 0
 NODE (LAYER,ROW,COL)   3     1   107 ELIMINATED BECAUSE ALL HYDRAULIC
 CONDUCTIVITIES TO NODE ARE 0
 NODE (LAYER,ROW,COL)   3     1   108 ELIMINATED BECAUSE ALL HYDRAULIC
 CONDUCTIVITIES TO NODE ARE 0
 NODE (LAYER,ROW,COL)   3     1   109 ELIMINATED BECAUSE ALL HYDRAULIC
 CONDUCTIVITIES TO NODE ARE 0
 NODE (LAYER,ROW,COL)   3     1   110 ELIMINATED BECAUSE ALL HYDRAULIC
 CONDUCTIVITIES TO NODE ARE 0
 NODE (LAYER,ROW,COL)   3     1   111 ELIMINATED BECAUSE ALL HYDRAULIC
 CONDUCTIVITIES TO NODE ARE 0
 NODE (LAYER,ROW,COL)   3     1   112 ELIMINATED BECAUSE ALL HYDRAULIC
 CONDUCTIVITIES TO NODE ARE 0
 NODE (LAYER,ROW,COL)   3     1   113 ELIMINATED BECAUSE ALL HYDRAULIC
 CONDUCTIVITIES TO NODE ARE 0
 NODE (LAYER,ROW,COL)   4     1     1 ELIMINATED BECAUSE ALL HYDRAULIC
 CONDUCTIVITIES TO NODE ARE 0
 NODE (LAYER,ROW,COL)   4     1     2 ELIMINATED BECAUSE ALL HYDRAULIC
 CONDUCTIVITIES TO NODE ARE 0
 NODE (LAYER,ROW,COL)   4     1     3 ELIMINATED BECAUSE ALL HYDRAULIC
 CONDUCTIVITIES TO NODE ARE 0
 NODE (LAYER,ROW,COL)   4     1     4 ELIMINATED BECAUSE ALL HYDRAULIC
 CONDUCTIVITIES TO NODE ARE 0
 NODE (LAYER,ROW,COL)   4     1     5 ELIMINATED BECAUSE ALL HYDRAULIC
 CONDUCTIVITIES TO NODE ARE 0
 NODE (LAYER,ROW,COL)   4     1     6 ELIMINATED BECAUSE ALL HYDRAULIC
 CONDUCTIVITIES TO NODE ARE 0
 NODE (LAYER,ROW,COL)   4     1     7 ELIMINATED BECAUSE ALL HYDRAULIC
 CONDUCTIVITIES TO NODE ARE 0
 NODE (LAYER,ROW,COL)   4     1     8 ELIMINATED BECAUSE ALL HYDRAULIC
 CONDUCTIVITIES TO NODE ARE 0
 NODE (LAYER,ROW,COL)   4     1     9 ELIMINATED BECAUSE ALL HYDRAULIC
 CONDUCTIVITIES TO NODE ARE 0
 NODE (LAYER,ROW,COL)   4     1    10 ELIMINATED BECAUSE ALL HYDRAULIC
 CONDUCTIVITIES TO NODE ARE 0
 NODE (LAYER,ROW,COL)   4     1    11 ELIMINATED BECAUSE ALL HYDRAULIC
 CONDUCTIVITIES TO NODE ARE 0
 NODE (LAYER,ROW,COL)   4     1    12 ELIMINATED BECAUSE ALL HYDRAULIC
 CONDUCTIVITIES TO NODE ARE 0
 NODE (LAYER,ROW,COL)   4     1    13 ELIMINATED BECAUSE ALL HYDRAULIC
 CONDUCTIVITIES TO NODE ARE 0
 NODE (LAYER,ROW,COL)   4     1    14 ELIMINATED BECAUSE ALL HYDRAULIC
 CONDUCTIVITIES TO NODE ARE 0
 NODE (LAYER,ROW,COL)   4     1    15 ELIMINATED BECAUSE ALL HYDRAULIC
 CONDUCTIVITIES TO NODE ARE 0
 NODE (LAYER,ROW,COL)   4     1    16 ELIMINATED BECAUSE ALL HYDRAULIC
 CONDUCTIVITIES TO NODE ARE 0
 NODE (LAYER,ROW,COL)   4     1    17 ELIMINATED BECAUSE ALL HYDRAULIC
 CONDUCTIVITIES TO NODE ARE 0
 NODE (LAYER,ROW,COL)   4     1    18 ELIMINATED BECAUSE ALL HYDRAULIC
 CONDUCTIVITIES TO NODE ARE 0
 NODE (LAYER,ROW,COL)   4     1    19 ELIMINATED BECAUSE ALL HYDRAULIC
 CONDUCTIVITIES TO NODE ARE 0
 NODE (LAYER,ROW,COL)   4     1    20 ELIMINATED BECAUSE ALL HYDRAULIC
 CONDUCTIVITIES TO NODE ARE 0
 NODE (LAYER,ROW,COL)   4     1    21 ELIMINATED BECAUSE ALL HYDRAULIC
 CONDUCTIVITIES TO NODE ARE 0
 NODE (LAYER,ROW,COL)   4     1    22 ELIMINATED BECAUSE ALL HYDRAULIC
 CONDUCTIVITIES TO NODE ARE 0
 NODE (LAYER,ROW,COL)   4     1    23 ELIMINATED BECAUSE ALL HYDRAULIC
 CONDUCTIVITIES TO NODE ARE 0
 NODE (LAYER,ROW,COL)   4     1    24 ELIMINATED BECAUSE ALL HYDRAULIC
 CONDUCTIVITIES TO NODE ARE 0
 NODE (LAYER,ROW,COL)   4     1    25 ELIMINATED BECAUSE ALL HYDRAULIC
 CONDUCTIVITIES TO NODE ARE 0
 NODE (LAYER,ROW,COL)   4     1    26 ELIMINATED BECAUSE ALL HYDRAULIC
 CONDUCTIVITIES TO NODE ARE 0
 NODE (LAYER,ROW,COL)   4     1    27 ELIMINATED BECAUSE ALL HYDRAULIC
 CONDUCTIVITIES TO NODE ARE 0
 NODE (LAYER,ROW,COL)   4     1    28 ELIMINATED BECAUSE ALL HYDRAULIC
 CONDUCTIVITIES TO NODE ARE 0
 NODE (LAYER,ROW,COL)   4     1    29 ELIMINATED BECAUSE ALL HYDRAULIC
 CONDUCTIVITIES TO NODE ARE 0
 NODE (LAYER,ROW,COL)   4     1    30 ELIMINATED BECAUSE ALL HYDRAULIC
 CONDUCTIVITIES TO NODE ARE 0
 NODE (LAYER,ROW,COL)   4     1    31 ELIMINATED BECAUSE ALL HYDRAULIC
 CONDUCTIVITIES TO NODE ARE 0
 NODE (LAYER,ROW,COL)   4     1    32 ELIMINATED BECAUSE ALL HYDRAULIC
 CONDUCTIVITIES TO NODE ARE 0
 NODE (LAYER,ROW,COL)   4     1    33 ELIMINATED BECAUSE ALL HYDRAULIC
 CONDUCTIVITIES TO NODE ARE 0
 NODE (LAYER,ROW,COL)   4     1    34 ELIMINATED BECAUSE ALL HYDRAULIC
 CONDUCTIVITIES TO NODE ARE 0
 NODE (LAYER,ROW,COL)   4     1    35 ELIMINATED BECAUSE ALL HYDRAULIC
 CONDUCTIVITIES TO NODE ARE 0
 NODE (LAYER,ROW,COL)   4     1    36 ELIMINATED BECAUSE ALL HYDRAULIC
 CONDUCTIVITIES TO NODE ARE 0
 NODE (LAYER,ROW,COL)   4     1    37 ELIMINATED BECAUSE ALL HYDRAULIC
 CONDUCTIVITIES TO NODE ARE 0
 NODE (LAYER,ROW,COL)   4     1    38 ELIMINATED BECAUSE ALL HYDRAULIC
 CONDUCTIVITIES TO NODE ARE 0
 NODE (LAYER,ROW,COL)   4     1    39 ELIMINATED BECAUSE ALL HYDRAULIC
 CONDUCTIVITIES TO NODE ARE 0
 NODE (LAYER,ROW,COL)   4     1    40 ELIMINATED BECAUSE ALL HYDRAULIC
 CONDUCTIVITIES TO NODE ARE 0
 NODE (LAYER,ROW,COL)   4     1    41 ELIMINATED BECAUSE ALL HYDRAULIC
 CONDUCTIVITIES TO NODE ARE 0
 NODE (LAYER,ROW,COL)   4     1    42 ELIMINATED BECAUSE ALL HYDRAULIC
 CONDUCTIVITIES TO NODE ARE 0
 NODE (LAYER,ROW,COL)   4     1    43 ELIMINATED BECAUSE ALL HYDRAULIC
 CONDUCTIVITIES TO NODE ARE 0
 NODE (LAYER,ROW,COL)   4     1    44 ELIMINATED BECAUSE ALL HYDRAULIC
 CONDUCTIVITIES TO NODE ARE 0
 NODE (LAYER,ROW,COL)   4     1    45 ELIMINATED BECAUSE ALL HYDRAULIC
 CONDUCTIVITIES TO NODE ARE 0
 NODE (LAYER,ROW,COL)   4     1    46 ELIMINATED BECAUSE ALL HYDRAULIC
 CONDUCTIVITIES TO NODE ARE 0
 NODE (LAYER,ROW,COL)   4     1    47 ELIMINATED BECAUSE ALL HYDRAULIC
 CONDUCTIVITIES TO NODE ARE 0
 NODE (LAYER,ROW,COL)   4     1    67 ELIMINATED BECAUSE ALL HYDRAULIC
 CONDUCTIVITIES TO NODE ARE 0
 NODE (LAYER,ROW,COL)   4     1    68 ELIMINATED BECAUSE ALL HYDRAULIC
 CONDUCTIVITIES TO NODE ARE 0
 NODE (LAYER,ROW,COL)   4     1    69 ELIMINATED BECAUSE ALL HYDRAULIC
 CONDUCTIVITIES TO NODE ARE 0
 NODE (LAYER,ROW,COL)   4     1    70 ELIMINATED BECAUSE ALL HYDRAULIC
 CONDUCTIVITIES TO NODE ARE 0
 NODE (LAYER,ROW,COL)   4     1    71 ELIMINATED BECAUSE ALL HYDRAULIC
 CONDUCTIVITIES TO NODE ARE 0
 NODE (LAYER,ROW,COL)   4     1    72 ELIMINATED BECAUSE ALL HYDRAULIC
 CONDUCTIVITIES TO NODE ARE 0
 NODE (LAYER,ROW,COL)   4     1    73 ELIMINATED BECAUSE ALL HYDRAULIC
 CONDUCTIVITIES TO NODE ARE 0
 NODE (LAYER,ROW,COL)   4     1    74 ELIMINATED BECAUSE ALL HYDRAULIC
 CONDUCTIVITIES TO NODE ARE 0
 NODE (LAYER,ROW,COL)   4     1    75 ELIMINATED BECAUSE ALL HYDRAULIC
 CONDUCTIVITIES TO NODE ARE 0
 NODE (LAYER,ROW,COL)   4     1    76 ELIMINATED BECAUSE ALL HYDRAULIC
 CONDUCTIVITIES TO NODE ARE 0
 NODE (LAYER,ROW,COL)   4     1    77 ELIMINATED BECAUSE ALL HYDRAULIC
 CONDUCTIVITIES TO NODE ARE 0
 NODE (LAYER,ROW,COL)   4     1    78 ELIMINATED BECAUSE ALL HYDRAULIC
 CONDUCTIVITIES TO NODE ARE 0
 NODE (LAYER,ROW,COL)   4     1    79 ELIMINATED BECAUSE ALL HYDRAULIC
 CONDUCTIVITIES TO NODE ARE 0
 NODE (LAYER,ROW,COL)   4     1    80 ELIMINATED BECAUSE ALL HYDRAULIC
 CONDUCTIVITIES TO NODE ARE 0
 NODE (LAYER,ROW,COL)   4     1    81 ELIMINATED BECAUSE ALL HYDRAULIC
 CONDUCTIVITIES TO NODE ARE 0
 NODE (LAYER,ROW,COL)   4     1    82 ELIMINATED BECAUSE ALL HYDRAULIC
 CONDUCTIVITIES TO NODE ARE 0
 NODE (LAYER,ROW,COL)   4     1    83 ELIMINATED BECAUSE ALL HYDRAULIC
 CONDUCTIVITIES TO NODE ARE 0
 NODE (LAYER,ROW,COL)   4     1    84 ELIMINATED BECAUSE ALL HYDRAULIC
 CONDUCTIVITIES TO NODE ARE 0
 NODE (LAYER,ROW,COL)   4     1    85 ELIMINATED BECAUSE ALL HYDRAULIC
 CONDUCTIVITIES TO NODE ARE 0
 NODE (LAYER,ROW,COL)   4     1    86 ELIMINATED BECAUSE ALL HYDRAULIC
 CONDUCTIVITIES TO NODE ARE 0
 NODE (LAYER,ROW,COL)   4     1    87 ELIMINATED BECAUSE ALL HYDRAULIC
 CONDUCTIVITIES TO NODE ARE 0
 NODE (LAYER,ROW,COL)   4     1    88 ELIMINATED BECAUSE ALL HYDRAULIC
 CONDUCTIVITIES TO NODE ARE 0
 NODE (LAYER,ROW,COL)   4     1    89 ELIMINATED BECAUSE ALL HYDRAULIC
 CONDUCTIVITIES TO NODE ARE 0
 NODE (LAYER,ROW,COL)   4     1    90 ELIMINATED BECAUSE ALL HYDRAULIC
 CONDUCTIVITIES TO NODE ARE 0
 NODE (LAYER,ROW,COL)   4     1    91 ELIMINATED BECAUSE ALL HYDRAULIC
 CONDUCTIVITIES TO NODE ARE 0
 NODE (LAYER,ROW,COL)   4     1    92 ELIMINATED BECAUSE ALL HYDRAULIC
 CONDUCTIVITIES TO NODE ARE 0
 NODE (LAYER,ROW,COL)   4     1    93 ELIMINATED BECAUSE ALL HYDRAULIC
 CONDUCTIVITIES TO NODE ARE 0
 NODE (LAYER,ROW,COL)   4     1    94 ELIMINATED BECAUSE ALL HYDRAULIC
 CONDUCTIVITIES TO NODE ARE 0
 NODE (LAYER,ROW,COL)   4     1    95 ELIMINATED BECAUSE ALL HYDRAULIC
 CONDUCTIVITIES TO NODE ARE 0
 NODE (LAYER,ROW,COL)   4     1    96 ELIMINATED BECAUSE ALL HYDRAULIC
 CONDUCTIVITIES TO NODE ARE 0
 NODE (LAYER,ROW,COL)   4     1    97 ELIMINATED BECAUSE ALL HYDRAULIC
 CONDUCTIVITIES TO NODE ARE 0
[...]
           41          42          43          44          45          46          47          48          49          50
           51          52          53          54          55          56          57          58          59          60
           61          62          63          64          65          66          67          68          69          70
           71          72          73          74          75          76          77          78          79          80
           81          82          83          84          85          86          87          88          89          90
           91          92          93          94          95          96          97          98          99         100
          101         102         103         104         105         106         107         108         109         110
          111         112         113
 ........................................................................................................................
   1   -99.00      -99.00      -99.00      -99.00      -99.00       80.00       80.00       80.00       80.00       80.00    
        79.99       79.99       79.99       79.98       79.98       79.97       79.96       79.95       79.93       79.92    
        79.90       79.87       79.85       79.81       79.78       79.74       79.69       79.64       79.58       79.51    
        79.44       79.36       79.27       79.18       79.07       78.96       78.84       78.71       78.57       78.42    
        78.26       78.09       77.91       77.73       77.54       77.33       77.13       76.91       76.68       76.44    
        75.09       72.61       70.10       67.56       64.98       62.35       59.66       56.90       54.07       51.17    
        48.20       45.16       42.07       40.35       40.02       39.66       39.28       38.89       38.49       38.08    
        37.66       37.24       36.80       36.36       35.92       35.47       35.01       34.55       34.07       33.60    
        33.11       32.62       32.12       31.61       31.10       30.57       30.04       29.50       28.94       28.38    
        27.80       27.22       26.62       26.00       25.37       24.72       24.05       23.37       22.67       21.94    
        21.19       20.41       19.59       18.73       17.78       16.72       16.22       16.00      -99.00      -99.00    
       -99.00      -99.00      -99.00    
1
              HEAD IN LAYER  47 AT END OF TIME STEP   1 IN STRESS PERIOD    1
  ---------------------------------------------------------------------------

            1           2           3           4           5           6           7           8           9          10
           11          12          13          14          15          16          17          18          19          20
           21          22          23          24          25          26          27          28          29          30
           31          32          33          34          35          36          37          38          39          40
           41          42          43          44          45          46          47          48          49          50
           51          52          53          54          55          56          57          58          59          60
           61          62          63          64          65          66          67          68          69          70
           71          72          73          74          75          76          77          78          79          80
           81          82          83          84          85          86          87          88          89          90
           91          92          93          94          95          96          97          98          99         100
          101         102         103         104         105         106         107         108         109         110
          111         112         113
 ........................................................................................................................
   1   -99.00      -99.00      -99.00      -99.00       80.00       80.00       80.00       80.00       80.00       80.00    
        79.99       79.99       79.99       79.98       79.98       79.97       79.96       79.95       79.93       79.91    
        79.89       79.87       79.84       79.81       79.77       79.73       79.69       79.63       79.57       79.51    
        79.44       79.36       79.27       79.17       79.07       78.95       78.83       78.70       78.56       78.41    
        78.25       78.08       77.91       77.72       77.53       77.33       77.12       76.90       76.67       76.44    
        75.08       72.59       70.07       67.53       64.94       62.30       59.61       56.85       54.02       51.12    
        48.15       45.13       42.05       40.34       40.00       39.65       39.27       38.88       38.48       38.07    
        37.66       37.23       36.80       36.36       35.91       35.46       35.00       34.54       34.07       33.59    
        33.11       32.61       32.11       31.61       31.09       30.57       30.03       29.49       28.94       28.37    
        27.79       27.21       26.60       25.99       25.36       24.71       24.04       23.35       22.65       21.92    
        21.17       20.39       19.57       18.72       17.82       16.92       16.39       16.12       16.00      -99.00    
       -99.00      -99.00      -99.00    
1
              HEAD IN LAYER  48 AT END OF TIME STEP   1 IN STRESS PERIOD    1
  ---------------------------------------------------------------------------

            1           2           3           4           5           6           7           8           9          10
           11          12          13          14          15          16          17          18          19          20
           21          22          23          24          25          26          27          28          29          30
           31          32          33          34          35          36          37          38          39          40
           41          42          43          44          45          46          47          48          49          50
           51          52          53          54          55          56          57          58          59          60
           61          62          63          64          65          66          67          68          69          70
           71          72          73          74          75          76          77          78          79          80
           81          82          83          84          85          86          87          88          89          90
           91          92          93          94          95          96          97          98          99         100
          101         102         103         104         105         106         107         108         109         110
          111         112         113
 ........................................................................................................................
   1   -99.00      -99.00      -99.00       80.00       80.00       80.00       80.00       80.00       80.00       80.00    
        79.99       79.99       79.99       79.98       79.97       79.97       79.96       79.94       79.93       79.91    
        79.89       79.87       79.84       79.81       79.77       79.73       79.68       79.63       79.57       79.50    
        79.43       79.35       79.26       79.17       79.06       78.95       78.82       78.69       78.55       78.40    
        78.24       78.08       77.90       77.72       77.52       77.32       77.11       76.89       76.67       76.43    
        75.07       72.57       70.05       67.50       64.91       62.27       59.57       56.81       53.98       51.08    
        48.12       45.10       42.03       40.32       39.99       39.63       39.26       38.88       38.48       38.07    
        37.65       37.23       36.79       36.35       35.91       35.46       35.00       34.54       34.07       33.59    
        33.10       32.61       32.11       31.60       31.09       30.56       30.03       29.48       28.93       28.36    
        27.79       27.20       26.59       25.98       25.34       24.70       24.03       23.34       22.63       21.90    
        21.15       20.37       19.56       18.73       17.87       17.06       16.52       16.21       16.06       16.00    
       -99.00      -99.00      -99.00    
1
              HEAD IN LAYER  49 AT END OF TIME STEP   1 IN STRESS PERIOD    1
  ---------------------------------------------------------------------------

            1           2           3           4           5           6           7           8           9          10
           11          12          13          14          15          16          17          18          19          20
           21          22          23          24          25          26          27          28          29          30
           31          32          33          34          35          36          37          38          39          40
           41          42          43          44          45          46          47          48          49          50
           51          52          53          54          55          56          57          58          59          60
           61          62          63          64          65          66          67          68          69          70
           71          72          73          74          75          76          77          78          79          80
           81          82          83          84          85          86          87          88          89          90
           91          92          93          94          95          96          97          98          99         100
          101         102         103         104         105         106         107         108         109         110
          111         112         113
 ........................................................................................................................
   1   -99.00      -99.00       80.00       80.00       80.00       80.00       80.00       80.00       80.00       80.00    
        79.99       79.99       79.99       79.98       79.97       79.97       79.96       79.94       79.93       79.91    
        79.89       79.87       79.84       79.80       79.77       79.73       79.68       79.63       79.57       79.50    
        79.43       79.35       79.26       79.16       79.06       78.94       78.82       78.69       78.55       78.40    
        78.24       78.07       77.90       77.71       77.52       77.32       77.11       76.89       76.66       76.42    
        75.06       72.56       70.04       67.48       64.89       62.24       59.54       56.77       53.95       51.05    
        48.09       45.08       42.01       40.31       39.98       39.63       39.26       38.87       38.47       38.06    
        37.65       37.22       36.79       36.35       35.91       35.46       35.00       34.53       34.06       33.58    
        33.10       32.61       32.11       31.60       31.08       30.56       30.02       29.48       28.92       28.36    
        27.78       27.19       26.59       25.97       25.34       24.69       24.02       23.33       22.62       21.89    
        21.14       20.36       19.56       18.73       17.90       17.15       16.61       16.29       16.11       16.03    
        16.00      -99.00      -99.00    
1
              HEAD IN LAYER  50 AT END OF TIME STEP   1 IN STRESS PERIOD    1
  ---------------------------------------------------------------------------

            1           2           3           4           5           6           7           8           9          10
           11          12          13          14          15          16          17          18          19          20
           21          22          23          24          25          26          27          28          29          30
           31          32          33          34          35          36          37          38          39          40
           41          42          43          44          45          46          47          48          49          50
           51          52          53          54          55          56          57          58          59          60
           61          62          63          64          65          66          67          68          69          70
           71          72          73          74          75          76          77          78          79          80
           81          82          83          84          85          86          87          88          89          90
           91          92          93          94          95          96          97          98          99         100
          101         102         103         104         105         106         107         108         109         110
          111         112         113
 ........................................................................................................................
   1   -99.00       80.00       80.00       80.00       80.00       80.00       80.00       80.00       80.00       80.00    
        79.99       79.99       79.99       79.98       79.97       79.96       79.95       79.94       79.93       79.91    
        79.89       79.86       79.84       79.80       79.77       79.72       79.68       79.62       79.56       79.50    
        79.43       79.34       79.26       79.16       79.05       78.94       78.82       78.69       78.55       78.40    
        78.24       78.07       77.89       77.71       77.52       77.32       77.11       76.89       76.66       76.42    
        75.05       72.55       70.03       67.47       64.87       62.22       59.52       56.75       53.92       51.03    
        48.07       45.06       42.00       40.30       39.97       39.62       39.25       38.87       38.47       38.06    
        37.64       37.22       36.79       36.35       35.90       35.45       35.00       34.53       34.06       33.58    
        33.10       32.60       32.10       31.60       31.08       30.55       30.02       29.47       28.92       28.35    
        27.78       27.19       26.58       25.96       25.33       24.68       24.01       23.32       22.62       21.89    
        21.13       20.35       19.55       18.74       17.93       17.21       16.67       16.33       16.14       16.05    
        16.01       16.00      -99.00    
1
              HEAD IN LAYER  51 AT END OF TIME STEP   1 IN STRESS PERIOD    1
  ---------------------------------------------------------------------------

            1           2           3           4           5           6           7           8           9          10
           11          12          13          14          15          16          17          18          19          20
           21          22          23          24          25          26          27          28          29          30
           31          32          33          34          35          36          37          38          39          40
           41          42          43          44          45          46          47          48          49          50
           51          52          53          54          55          56          57          58          59          60
           61          62          63          64          65          66          67          68          69          70
           71          72          73          74          75          76          77          78          79          80
           81          82          83          84          85          86          87          88          89          90
           91          92          93          94          95          96          97          98          99         100
          101         102         103         104         105         106         107         108         109         110
          111         112         113
 ........................................................................................................................
   1    80.00       80.00       80.00       80.00       80.00       80.00       80.00       80.00       80.00       80.00    
        79.99       79.99       79.99       79.98       79.97       79.96       79.95       79.94       79.93       79.91    
        79.89       79.86       79.83       79.80       79.77       79.72       79.68       79.62       79.56       79.50    
        79.42       79.34       79.25       79.16       79.05       78.94       78.82       78.68       78.54       78.39    
        78.24       78.07       77.89       77.71       77.52       77.31       77.10       76.89       76.66       76.42    
        75.05       72.55       70.02       67.46       64.86       62.21       59.51       56.74       53.91       51.02    
        48.06       45.05       42.00       40.30       39.97       39.62       39.25       38.86       38.47       38.06    
        37.64       37.22       36.79       36.35       35.90       35.45       34.99       34.53       34.06       33.58    
        33.10       32.60       32.10       31.59       31.08       30.55       30.02       29.47       28.92       28.35    
        27.77       27.18       26.58       25.96       25.33       24.68       24.01       23.32       22.61       21.88    
        21.13       20.35       19.55       18.74       17.94       17.24       16.70       16.36       16.16       16.06    
        16.01       16.00       16.00    

 HEAD WILL BE SAVED ON UNIT   51 AT END OF TIME STEP    1, STRESS PERIOD    1

 DRAWDOWN WILL BE SAVED ON UNIT   52 AT END OF TIME STEP    1, STRESS PERIOD    1
1
  VOLUMETRIC BUDGET FOR ENTIRE MODEL AT END OF TIME STEP    1, STRESS PERIOD   1
  ------------------------------------------------------------------------------

     CUMULATIVE VOLUMES      L**3       RATES FOR THIS TIME STEP      L**3/T
     ------------------                 ------------------------

           IN:                                      IN:
           ---                                      ---
             STORAGE =           0.0000               STORAGE =           0.0000
       CONSTANT HEAD =         322.5503         CONSTANT HEAD =         322.5503

            TOTAL IN =         322.5503              TOTAL IN =         322.5503

          OUT:                                     OUT:
          ----                                     ----
             STORAGE =           0.0000               STORAGE =           0.0000
       CONSTANT HEAD =         322.5509         CONSTANT HEAD =         322.5509

           TOTAL OUT =         322.5509             TOTAL OUT =         322.5509

            IN - OUT =      -5.7983E-04              IN - OUT =      -5.7983E-04

 PERCENT DISCREPANCY =          -0.00     PERCENT DISCREPANCY =          -0.00






         TIME SUMMARY AT END OF TIME STEP    1 IN STRESS PERIOD    1
                    SECONDS     MINUTES      HOURS       DAYS        YEARS
                    -----------------------------------------------------------
   TIME STEP LENGTH  86400.      1440.0      24.000      1.0000     2.73785E-03
 STRESS PERIOD TIME  86400.      1440.0      24.000      1.0000     2.73785E-03
         TOTAL TIME  86400.      1440.0      24.000      1.0000     2.73785E-03
1
 FAILURE TO MEET SOLVER CONVERGENCE CRITERIA
 BUDGET PERCENT DISCREPANCY IS   -0.0002
 STOPPING SIMULATION

 Run end date and time (yyyy/mm/dd hh:mm:ss): 2023/08/08 19:40:33
 Elapsed run time:  3.944 Seconds

