                                  MODFLOW-2005     
      U.S. GEOLOGICAL SURVEY MODULAR FINITE-DIFFERENCE GROUND-WATER FLOW MODEL
                            VERSION 1.12.00 2/3/2017

 LIST FILE: UncPlanPaper.list
                         UNIT    2

 OPENING UncPlanPaper.dis
 FILE TYPE:DIS   UNIT   11   STATUS:OLD    
 FORMAT:FORMATTED              ACCESS:SEQUENTIAL          

 OPENING UncPlanPaper.bas
 FILE TYPE:BAS6   UNIT   13   STATUS:OLD    
 FORMAT:FORMATTED              ACCESS:SEQUENTIAL          

 OPENING UncPlanPaper.lpf
 FILE TYPE:LPF   UNIT   15   STATUS:OLD    
 FORMAT:FORMATTED              ACCESS:SEQUENTIAL          

 OPENING UncPlanPaper.wel
 FILE TYPE:WEL   UNIT   20   STATUS:OLD    
 FORMAT:FORMATTED              ACCESS:SEQUENTIAL          

 OPENING UncPlanPaper.riv
 FILE TYPE:RIV   UNIT   18   STATUS:OLD    
 FORMAT:FORMATTED              ACCESS:SEQUENTIAL          

 OPENING UncPlanPaper.rch
 FILE TYPE:RCH   UNIT   19   STATUS:OLD    
 FORMAT:FORMATTED              ACCESS:SEQUENTIAL          

 OPENING UncPlanPaper.oc
 FILE TYPE:OC   UNIT   14   STATUS:OLD    
 FORMAT:FORMATTED              ACCESS:SEQUENTIAL          

 OPENING UncPlanPaper.pcg
 FILE TYPE:PCG   UNIT   27   STATUS:OLD    
 FORMAT:FORMATTED              ACCESS:SEQUENTIAL          

 OPENING UncPlanPaper.cbc
 FILE TYPE:DATA(BINARY)   UNIT   53   STATUS:REPLACE
 FORMAT:UNFORMATTED            ACCESS:STREAM              

 OPENING UncPlanPaper.hds
 FILE TYPE:DATA(BINARY)   UNIT   51   STATUS:REPLACE
 FORMAT:UNFORMATTED            ACCESS:STREAM              

 OPENING UncPlanPaper.ddn
 FILE TYPE:DATA(BINARY)   UNIT   52   STATUS:REPLACE
 FORMAT:UNFORMATTED            ACCESS:STREAM              

 BAS -- BASIC PACKAGE, VERSION 7, 5/2/2005 INPUT READ FROM UNIT   13

 MODFLOW was compiled using mixed precision
 Precision of REAL variables:           6
 Precision of DOUBLE PRECISION variables:          15

 DISCRETIZATION INPUT DATA READ FROM UNIT   11
 # DIS package for MODFLOW-2005 generated by Flopy 3.4.1
    1 LAYERS        19 ROWS        33 COLUMNS
    1 STRESS PERIOD(S) IN SIMULATION
 MODEL TIME UNIT IS DAYS
 MODEL LENGTH UNIT IS METERS
  Confining bed flag for each layer:
   0

                     DELR =   100.000    

                     DELC =   100.000    



           TOP ELEVATION OF LAYER 1
 READING ON UNIT   11 WITH FORMAT: (33E15.6)           



             MODEL LAYER BOTTOM EL. FOR LAYER   1
 READING ON UNIT   11 WITH FORMAT: (33E15.6)           


 STRESS PERIOD     LENGTH       TIME STEPS     MULTIPLIER FOR DELT    SS FLAG
 ----------------------------------------------------------------------------
        1         1.000000          1                    1.000         SS

 STEADY-STATE SIMULATION




 # BAS6 package for MODFLOW-2005 generated by Flopy 3.4.1                        
 THE FREE FORMAT OPTION HAS BEEN SELECTED



                     BOUNDARY ARRAY FOR LAYER   1
 READING ON UNIT   13 WITH FORMAT: (33I10)             

 AQUIFER HEAD WILL BE SET TO  -99.000     AT ALL NO-FLOW NODES (IBOUND=0).

             INITIAL HEAD =   100.000     FOR LAYER   1
 # OC package for MODFLOW-2005 generated by Flopy 3.4.1

 OUTPUT CONTROL IS SPECIFIED ONLY AT TIME STEPS FOR WHICH OUTPUT IS DESIRED
 COMPACT CELL-BY-CELL BUDGET FILES WILL BE WRITTEN
 AUXILIARY DATA WILL BE SAVED IN CELL-BY-CELL BUDGET FILES
 HEAD PRINT FORMAT CODE IS   0    DRAWDOWN PRINT FORMAT CODE IS   0
 HEADS WILL BE SAVED ON UNIT   51    DRAWDOWNS WILL BE SAVED ON UNIT   52

 LPF -- LAYER-PROPERTY FLOW PACKAGE, VERSION 7, 5/2/2005
         INPUT READ FROM UNIT   15
 # LPF package for MODFLOW-2005 generated by Flopy 3.4.1
 CELL-BY-CELL FLOWS WILL BE SAVED ON UNIT   53
 HEAD AT CELLS THAT CONVERT TO DRY= -1.00000E+30
 No named parameters

   LAYER FLAGS:
 LAYER       LAYTYP        LAYAVG         CHANI        LAYVKA        LAYWET
 ---------------------------------------------------------------------------
    1             1             0    -1.000E+00             0             1

   INTERPRETATION OF LAYER FLAGS:
                        INTERBLOCK     HORIZONTAL    DATA IN
         LAYER TYPE   TRANSMISSIVITY   ANISOTROPY   ARRAY VKA   WETTABILITY
 LAYER      (LAYTYP)      (LAYAVG)       (CHANI)      (LAYVKA)      (LAYWET)
 ---------------------------------------------------------------------------
    1   CONVERTIBLE      HARMONIC      VARIABLE    VERTICAL K      WETTABLE

 WETTING CAPABILITY IS ACTIVE IN   1 LAYERS
  WETTING FACTOR=  0.100000001    
  WETTING ITERATION INTERVAL=           1
  IHDWET=           0



              HYD. COND. ALONG ROWS FOR LAYER   1
 READING ON UNIT   15 WITH FORMAT: (33E15.6)           



             HORIZ. ANI. (COL./ROW) FOR LAYER   1
 READING ON UNIT   15 WITH FORMAT: (33E15.6)           

      VERTICAL HYD. COND. =  1.000000E-05 FOR LAYER   1

         WETDRY PARAMETER = -1.000000E-02 FOR LAYER   1
 NODE (LAYER,ROW,COL)   1     1     1 ELIMINATED BECAUSE ALL HYDRAULIC
 CONDUCTIVITIES TO NODE ARE 0
 NODE (LAYER,ROW,COL)   1     1     2 ELIMINATED BECAUSE ALL HYDRAULIC
 CONDUCTIVITIES TO NODE ARE 0
 NODE (LAYER,ROW,COL)   1     1     3 ELIMINATED BECAUSE ALL HYDRAULIC
 CONDUCTIVITIES TO NODE ARE 0
 NODE (LAYER,ROW,COL)   1     1     4 ELIMINATED BECAUSE ALL HYDRAULIC
 CONDUCTIVITIES TO NODE ARE 0
 NODE (LAYER,ROW,COL)   1     1     5 ELIMINATED BECAUSE ALL HYDRAULIC
 CONDUCTIVITIES TO NODE ARE 0
 NODE (LAYER,ROW,COL)   1     1     6 ELIMINATED BECAUSE ALL HYDRAULIC
 CONDUCTIVITIES TO NODE ARE 0
 NODE (LAYER,ROW,COL)   1     1     7 ELIMINATED BECAUSE ALL HYDRAULIC
 CONDUCTIVITIES TO NODE ARE 0
 NODE (LAYER,ROW,COL)   1     1     8 ELIMINATED BECAUSE ALL HYDRAULIC
 CONDUCTIVITIES TO NODE ARE 0
 NODE (LAYER,ROW,COL)   1     1     9 ELIMINATED BECAUSE ALL HYDRAULIC
 CONDUCTIVITIES TO NODE ARE 0
 NODE (LAYER,ROW,COL)   1     1    10 ELIMINATED BECAUSE ALL HYDRAULIC
 CONDUCTIVITIES TO NODE ARE 0
 NODE (LAYER,ROW,COL)   1     1    11 ELIMINATED BECAUSE ALL HYDRAULIC
 CONDUCTIVITIES TO NODE ARE 0
 NODE (LAYER,ROW,COL)   1     1    12 ELIMINATED BECAUSE ALL HYDRAULIC
 CONDUCTIVITIES TO NODE ARE 0
 NODE (LAYER,ROW,COL)   1     1    33 ELIMINATED BECAUSE ALL HYDRAULIC
 CONDUCTIVITIES TO NODE ARE 0
 NODE (LAYER,ROW,COL)   1     2     1 ELIMINATED BECAUSE ALL HYDRAULIC
 CONDUCTIVITIES TO NODE ARE 0
 NODE (LAYER,ROW,COL)   1     2     2 ELIMINATED BECAUSE ALL HYDRAULIC
 CONDUCTIVITIES TO NODE ARE 0
 NODE (LAYER,ROW,COL)   1     3     1 ELIMINATED BECAUSE ALL HYDRAULIC
 CONDUCTIVITIES TO NODE ARE 0
 NODE (LAYER,ROW,COL)   1     7    32 ELIMINATED BECAUSE ALL HYDRAULIC
 CONDUCTIVITIES TO NODE ARE 0
 NODE (LAYER,ROW,COL)   1     7    33 ELIMINATED BECAUSE ALL HYDRAULIC
 CONDUCTIVITIES TO NODE ARE 0
 NODE (LAYER,ROW,COL)   1     8    29 ELIMINATED BECAUSE ALL HYDRAULIC
 CONDUCTIVITIES TO NODE ARE 0
 NODE (LAYER,ROW,COL)   1     8    30 ELIMINATED BECAUSE ALL HYDRAULIC
 CONDUCTIVITIES TO NODE ARE 0
 NODE (LAYER,ROW,COL)   1     8    31 ELIMINATED BECAUSE ALL HYDRAULIC
 CONDUCTIVITIES TO NODE ARE 0
 NODE (LAYER,ROW,COL)   1     8    32 ELIMINATED BECAUSE ALL HYDRAULIC
 CONDUCTIVITIES TO NODE ARE 0
 NODE (LAYER,ROW,COL)   1     8    33 ELIMINATED BECAUSE ALL HYDRAULIC
 CONDUCTIVITIES TO NODE ARE 0
 NODE (LAYER,ROW,COL)   1     9    28 ELIMINATED BECAUSE ALL HYDRAULIC
 CONDUCTIVITIES TO NODE ARE 0
 NODE (LAYER,ROW,COL)   1     9    29 ELIMINATED BECAUSE ALL HYDRAULIC
 CONDUCTIVITIES TO NODE ARE 0
 NODE (LAYER,ROW,COL)   1     9    30 ELIMINATED BECAUSE ALL HYDRAULIC
 CONDUCTIVITIES TO NODE ARE 0
 NODE (LAYER,ROW,COL)   1     9    31 ELIMINATED BECAUSE ALL HYDRAULIC
 CONDUCTIVITIES TO NODE ARE 0
 NODE (LAYER,ROW,COL)   1     9    32 ELIMINATED BECAUSE ALL HYDRAULIC
 CONDUCTIVITIES TO NODE ARE 0
 NODE (LAYER,ROW,COL)   1     9    33 ELIMINATED BECAUSE ALL HYDRAULIC
 CONDUCTIVITIES TO NODE ARE 0
 NODE (LAYER,ROW,COL)   1    10    28 ELIMINATED BECAUSE ALL HYDRAULIC
 CONDUCTIVITIES TO NODE ARE 0
 NODE (LAYER,ROW,COL)   1    10    29 ELIMINATED BECAUSE ALL HYDRAULIC
 CONDUCTIVITIES TO NODE ARE 0
 NODE (LAYER,ROW,COL)   1    10    30 ELIMINATED BECAUSE ALL HYDRAULIC
 CONDUCTIVITIES TO NODE ARE 0
 NODE (LAYER,ROW,COL)   1    10    31 ELIMINATED BECAUSE ALL HYDRAULIC
 CONDUCTIVITIES TO NODE ARE 0
 NODE (LAYER,ROW,COL)   1    10    32 ELIMINATED BECAUSE ALL HYDRAULIC
 CONDUCTIVITIES TO NODE ARE 0
 NODE (LAYER,ROW,COL)   1    10    33 ELIMINATED BECAUSE ALL HYDRAULIC
 CONDUCTIVITIES TO NODE ARE 0
 NODE (LAYER,ROW,COL)   1    11    28 ELIMINATED BECAUSE ALL HYDRAULIC
 CONDUCTIVITIES TO NODE ARE 0
 NODE (LAYER,ROW,COL)   1    11    29 ELIMINATED BECAUSE ALL HYDRAULIC
 CONDUCTIVITIES TO NODE ARE 0
 NODE (LAYER,ROW,COL)   1    11    30 ELIMINATED BECAUSE ALL HYDRAULIC
 CONDUCTIVITIES TO NODE ARE 0
 NODE (LAYER,ROW,COL)   1    11    31 ELIMINATED BECAUSE ALL HYDRAULIC
 CONDUCTIVITIES TO NODE ARE 0
 NODE (LAYER,ROW,COL)   1    11    32 ELIMINATED BECAUSE ALL HYDRAULIC
 CONDUCTIVITIES TO NODE ARE 0
 NODE (LAYER,ROW,COL)   1    11    33 ELIMINATED BECAUSE ALL HYDRAULIC
 CONDUCTIVITIES TO NODE ARE 0
 NODE (LAYER,ROW,COL)   1    12    28 ELIMINATED BECAUSE ALL HYDRAULIC
 CONDUCTIVITIES TO NODE ARE 0
 NODE (LAYER,ROW,COL)   1    12    29 ELIMINATED BECAUSE ALL HYDRAULIC
 CONDUCTIVITIES TO NODE ARE 0
 NODE (LAYER,ROW,COL)   1    12    30 ELIMINATED BECAUSE ALL HYDRAULIC
 CONDUCTIVITIES TO NODE ARE 0
 NODE (LAYER,ROW,COL)   1    12    31 ELIMINATED BECAUSE ALL HYDRAULIC
 CONDUCTIVITIES TO NODE ARE 0
 NODE (LAYER,ROW,COL)   1    12    32 ELIMINATED BECAUSE ALL HYDRAULIC
 CONDUCTIVITIES TO NODE ARE 0
 NODE (LAYER,ROW,COL)   1    12    33 ELIMINATED BECAUSE ALL HYDRAULIC
 CONDUCTIVITIES TO NODE ARE 0
 NODE (LAYER,ROW,COL)   1    13    28 ELIMINATED BECAUSE ALL HYDRAULIC
 CONDUCTIVITIES TO NODE ARE 0
 NODE (LAYER,ROW,COL)   1    13    29 ELIMINATED BECAUSE ALL HYDRAULIC
 CONDUCTIVITIES TO NODE ARE 0
 NODE (LAYER,ROW,COL)   1    13    30 ELIMINATED BECAUSE ALL HYDRAULIC
 CONDUCTIVITIES TO NODE ARE 0
 NODE (LAYER,ROW,COL)   1    13    31 ELIMINATED BECAUSE ALL HYDRAULIC
 CONDUCTIVITIES TO NODE ARE 0
 NODE (LAYER,ROW,COL)   1    13    32 ELIMINATED BECAUSE ALL HYDRAULIC
 CONDUCTIVITIES TO NODE ARE 0
 NODE (LAYER,ROW,COL)   1    13    33 ELIMINATED BECAUSE ALL HYDRAULIC
 CONDUCTIVITIES TO NODE ARE 0
 NODE (LAYER,ROW,COL)   1    14    28 ELIMINATED BECAUSE ALL HYDRAULIC
 CONDUCTIVITIES TO NODE ARE 0
 NODE (LAYER,ROW,COL)   1    14    29 ELIMINATED BECAUSE ALL HYDRAULIC
 CONDUCTIVITIES TO NODE ARE 0
 NODE (LAYER,ROW,COL)   1    14    30 ELIMINATED BECAUSE ALL HYDRAULIC
 CONDUCTIVITIES TO NODE ARE 0
 NODE (LAYER,ROW,COL)   1    14    31 ELIMINATED BECAUSE ALL HYDRAULIC
 CONDUCTIVITIES TO NODE ARE 0
 NODE (LAYER,ROW,COL)   1    14    32 ELIMINATED BECAUSE ALL HYDRAULIC
 CONDUCTIVITIES TO NODE ARE 0
 NODE (LAYER,ROW,COL)   1    14    33 ELIMINATED BECAUSE ALL HYDRAULIC
 CONDUCTIVITIES TO NODE ARE 0
 NODE (LAYER,ROW,COL)   1    15     1 ELIMINATED BECAUSE ALL HYDRAULIC
 CONDUCTIVITIES TO NODE ARE 0
 NODE (LAYER,ROW,COL)   1    15    28 ELIMINATED BECAUSE ALL HYDRAULIC
 CONDUCTIVITIES TO NODE ARE 0
 NODE (LAYER,ROW,COL)   1    15    29 ELIMINATED BECAUSE ALL HYDRAULIC
 CONDUCTIVITIES TO NODE ARE 0
 NODE (LAYER,ROW,COL)   1    15    30 ELIMINATED BECAUSE ALL HYDRAULIC
 CONDUCTIVITIES TO NODE ARE 0
 NODE (LAYER,ROW,COL)   1    15    31 ELIMINATED BECAUSE ALL HYDRAULIC
 CONDUCTIVITIES TO NODE ARE 0
 NODE (LAYER,ROW,COL)   1    15    32 ELIMINATED BECAUSE ALL HYDRAULIC
 CONDUCTIVITIES TO NODE ARE 0
 NODE (LAYER,ROW,COL)   1    15    33 ELIMINATED BECAUSE ALL HYDRAULIC
 CONDUCTIVITIES TO NODE ARE 0
 NODE (LAYER,ROW,COL)   1    16     1 ELIMINATED BECAUSE ALL HYDRAULIC
 CONDUCTIVITIES TO NODE ARE 0
 NODE (LAYER,ROW,COL)   1    16    27 ELIMINATED BECAUSE ALL HYDRAULIC
 CONDUCTIVITIES TO NODE ARE 0
 NODE (LAYER,ROW,COL)   1    16    28 ELIMINATED BECAUSE ALL HYDRAULIC
 CONDUCTIVITIES TO NODE ARE 0
 NODE (LAYER,ROW,COL)   1    16    29 ELIMINATED BECAUSE ALL HYDRAULIC
 CONDUCTIVITIES TO NODE ARE 0
 NODE (LAYER,ROW,COL)   1    16    30 ELIMINATED BECAUSE ALL HYDRAULIC
 CONDUCTIVITIES TO NODE ARE 0
 NODE (LAYER,ROW,COL)   1    16    31 ELIMINATED BECAUSE ALL HYDRAULIC
 CONDUCTIVITIES TO NODE ARE 0
 NODE (LAYER,ROW,COL)   1    16    32 ELIMINATED BECAUSE ALL HYDRAULIC
 CONDUCTIVITIES TO NODE ARE 0
 NODE (LAYER,ROW,COL)   1    16    33 ELIMINATED BECAUSE ALL HYDRAULIC
 CONDUCTIVITIES TO NODE ARE 0
 NODE (LAYER,ROW,COL)   1    17     1 ELIMINATED BECAUSE ALL HYDRAULIC
 CONDUCTIVITIES TO NODE ARE 0
 NODE (LAYER,ROW,COL)   1    17    26 ELIMINATED BECAUSE ALL HYDRAULIC
 CONDUCTIVITIES TO NODE ARE 0
 NODE (LAYER,ROW,COL)   1    17    27 ELIMINATED BECAUSE ALL HYDRAULIC
 CONDUCTIVITIES TO NODE ARE 0
 NODE (LAYER,ROW,COL)   1    17    28 ELIMINATED BECAUSE ALL HYDRAULIC
 CONDUCTIVITIES TO NODE ARE 0
 NODE (LAYER,ROW,COL)   1    17    29 ELIMINATED BECAUSE ALL HYDRAULIC
 CONDUCTIVITIES TO NODE ARE 0
 NODE (LAYER,ROW,COL)   1    17    30 ELIMINATED BECAUSE ALL HYDRAULIC
 CONDUCTIVITIES TO NODE ARE 0
 NODE (LAYER,ROW,COL)   1    17    31 ELIMINATED BECAUSE ALL HYDRAULIC
 CONDUCTIVITIES TO NODE ARE 0
 NODE (LAYER,ROW,COL)   1    17    32 ELIMINATED BECAUSE ALL HYDRAULIC
 CONDUCTIVITIES TO NODE ARE 0
 NODE (LAYER,ROW,COL)   1    17    33 ELIMINATED BECAUSE ALL HYDRAULIC
 CONDUCTIVITIES TO NODE ARE 0
 NODE (LAYER,ROW,COL)   1    18     1 ELIMINATED BECAUSE ALL HYDRAULIC
 CONDUCTIVITIES TO NODE ARE 0
 NODE (LAYER,ROW,COL)   1    18     2 ELIMINATED BECAUSE ALL HYDRAULIC
 CONDUCTIVITIES TO NODE ARE 0
 NODE (LAYER,ROW,COL)   1    18    24 ELIMINATED BECAUSE ALL HYDRAULIC
 CONDUCTIVITIES TO NODE ARE 0
 NODE (LAYER,ROW,COL)   1    18    25 ELIMINATED BECAUSE ALL HYDRAULIC
 CONDUCTIVITIES TO NODE ARE 0
 NODE (LAYER,ROW,COL)   1    18    26 ELIMINATED BECAUSE ALL HYDRAULIC
 CONDUCTIVITIES TO NODE ARE 0
 NODE (LAYER,ROW,COL)   1    18    27 ELIMINATED BECAUSE ALL HYDRAULIC
 CONDUCTIVITIES TO NODE ARE 0
 NODE (LAYER,ROW,COL)   1    18    28 ELIMINATED BECAUSE ALL HYDRAULIC
 CONDUCTIVITIES TO NODE ARE 0
 NODE (LAYER,ROW,COL)   1    18    29 ELIMINATED BECAUSE ALL HYDRAULIC
 CONDUCTIVITIES TO NODE ARE 0
 NODE (LAYER,ROW,COL)   1    18    30 ELIMINATED BECAUSE ALL HYDRAULIC
 CONDUCTIVITIES TO NODE ARE 0
 NODE (LAYER,ROW,COL)   1    18    31 ELIMINATED BECAUSE ALL HYDRAULIC
 CONDUCTIVITIES TO NODE ARE 0
 NODE (LAYER,ROW,COL)   1    18    32 ELIMINATED BECAUSE ALL HYDRAULIC
 CONDUCTIVITIES TO NODE ARE 0
 NODE (LAYER,ROW,COL)   1    18    33 ELIMINATED BECAUSE ALL HYDRAULIC
 CONDUCTIVITIES TO NODE ARE 0
 NODE (LAYER,ROW,COL)   1    19     1 ELIMINATED BECAUSE ALL HYDRAULIC
 CONDUCTIVITIES TO NODE ARE 0
 NODE (LAYER,ROW,COL)   1    19     2 ELIMINATED BECAUSE ALL HYDRAULIC
 CONDUCTIVITIES TO NODE ARE 0
 NODE (LAYER,ROW,COL)   1    19     3 ELIMINATED BECAUSE ALL HYDRAULIC
 CONDUCTIVITIES TO NODE ARE 0
 NODE (LAYER,ROW,COL)   1    19     4 ELIMINATED BECAUSE ALL HYDRAULIC
 CONDUCTIVITIES TO NODE ARE 0
 NODE (LAYER,ROW,COL)   1    19    13 ELIMINATED BECAUSE ALL HYDRAULIC
 CONDUCTIVITIES TO NODE ARE 0
 NODE (LAYER,ROW,COL)   1    19    14 ELIMINATED BECAUSE ALL HYDRAULIC
 CONDUCTIVITIES TO NODE ARE 0
 NODE (LAYER,ROW,COL)   1    19    15 ELIMINATED BECAUSE ALL HYDRAULIC
 CONDUCTIVITIES TO NODE ARE 0
 NODE (LAYER,ROW,COL)   1    19    16 ELIMINATED BECAUSE ALL HYDRAULIC
 CONDUCTIVITIES TO NODE ARE 0
 NODE (LAYER,ROW,COL)   1    19    17 ELIMINATED BECAUSE ALL HYDRAULIC
 CONDUCTIVITIES TO NODE ARE 0
 NODE (LAYER,ROW,COL)   1    19    18 ELIMINATED BECAUSE ALL HYDRAULIC
 CONDUCTIVITIES TO NODE ARE 0
 NODE (LAYER,ROW,COL)   1    19    19 ELIMINATED BECAUSE ALL HYDRAULIC
 CONDUCTIVITIES TO NODE ARE 0
 NODE (LAYER,ROW,COL)   1    19    20 ELIMINATED BECAUSE ALL HYDRAULIC
 CONDUCTIVITIES TO NODE ARE 0
 NODE (LAYER,ROW,COL)   1    19    21 ELIMINATED BECAUSE ALL HYDRAULIC
 CONDUCTIVITIES TO NODE ARE 0
 NODE (LAYER,ROW,COL)   1    19    22 ELIMINATED BECAUSE ALL HYDRAULIC
 CONDUCTIVITIES TO NODE ARE 0
 NODE (LAYER,ROW,COL)   1    19    23 ELIMINATED BECAUSE ALL HYDRAULIC
 CONDUCTIVITIES TO NODE ARE 0
 NODE (LAYER,ROW,COL)   1    19    24 ELIMINATED BECAUSE ALL HYDRAULIC
 CONDUCTIVITIES TO NODE ARE 0
 NODE (LAYER,ROW,COL)   1    19    25 ELIMINATED BECAUSE ALL HYDRAULIC
 CONDUCTIVITIES TO NODE ARE 0
 NODE (LAYER,ROW,COL)   1    19    26 ELIMINATED BECAUSE ALL HYDRAULIC
 CONDUCTIVITIES TO NODE ARE 0
 NODE (LAYER,ROW,COL)   1    19    27 ELIMINATED BECAUSE ALL HYDRAULIC
 CONDUCTIVITIES TO NODE ARE 0
 NODE (LAYER,ROW,COL)   1    19    28 ELIMINATED BECAUSE ALL HYDRAULIC
 CONDUCTIVITIES TO NODE ARE 0
 NODE (LAYER,ROW,COL)   1    19    29 ELIMINATED BECAUSE ALL HYDRAULIC
 CONDUCTIVITIES TO NODE ARE 0
 NODE (LAYER,ROW,COL)   1    19    30 ELIMINATED BECAUSE ALL HYDRAULIC
 CONDUCTIVITIES TO NODE ARE 0
 NODE (LAYER,ROW,COL)   1    19    31 ELIMINATED BECAUSE ALL HYDRAULIC
 CONDUCTIVITIES TO NODE ARE 0
 NODE (LAYER,ROW,COL)   1    19    32 ELIMINATED BECAUSE ALL HYDRAULIC
 CONDUCTIVITIES TO NODE ARE 0
 NODE (LAYER,ROW,COL)   1    19    33 ELIMINATED BECAUSE ALL HYDRAULIC
 CONDUCTIVITIES TO NODE ARE 0

 WEL -- WELL PACKAGE, VERSION 7, 5/2/2005 INPUT READ FROM UNIT   20
 # WEL package for MODFLOW-2005 generated by Flopy 3.4.1
 No named parameters
 MAXIMUM OF      3 ACTIVE WELLS AT ONE TIME


     0 Well parameters

 RIV -- RIVER PACKAGE, VERSION 7, 5/2/2005 INPUT READ FROM UNIT   18
 # RIV package for MODFLOW-2005 generated by Flopy 3.4.1
 No named parameters
 MAXIMUM OF     45 ACTIVE RIVER REACHES AT ONE TIME


     0 River parameters

 RCH -- RECHARGE PACKAGE, VERSION 7, 5/2/2005 INPUT READ FROM UNIT   19
 # RCH package for MODFLOW-2005 generated by Flopy 3.4.1
 No named parameters
 OPTION 2 -- RECHARGE TO ONE SPECIFIED NODE IN EACH VERTICAL COLUMN


     0 Recharge parameters

 PCG -- CONJUGATE-GRADIENT SOLUTION PACKAGE, VERSION 7, 5/2/2005
 # PCG package for MODFLOW-2005 generated by Flopy 3.4.1
 MAXIMUM OF   1000 CALLS OF SOLUTION ROUTINE
 MAXIMUM OF     30 INTERNAL ITERATIONS PER CALL TO SOLUTION ROUTINE
 MATRIX PRECONDITIONING TYPE :    1



                                    SOLUTION BY THE CONJUGATE-GRADIENT METHOD
                                   -------------------------------------------
                    MAXIMUM NUMBER OF CALLS TO PCG ROUTINE =     1000
                        MAXIMUM ITERATIONS PER CALL TO PCG =       30
                               MATRIX PRECONDITIONING TYPE =        1
        RELAXATION FACTOR (ONLY USED WITH PRECOND. TYPE 1) =    0.80000E+00
 PARAMETER OF POLYNOMIAL PRECOND. = 2 (2) OR IS CALCULATED :        0
                         HEAD CHANGE CRITERION FOR CLOSURE =    0.10000E-04
                     RESIDUAL CHANGE CRITERION FOR CLOSURE =    0.10000E-04
            PCG HEAD AND RESIDUAL CHANGE PRINTOUT INTERVAL =      999
     PRINTING FROM SOLVER IS LIMITED(1) OR SUPPRESSED (>1) =        3
                            STEADY-STATE DAMPING PARAMETER =    0.10000E+01
                               TRANSIENT DAMPING PARAMETER =    0.10000E+01
1
                            STRESS PERIOD NO.    1, LENGTH =   1.000000    
                            -----------------------------------------------

                              NUMBER OF TIME STEPS =     1

                               MULTIPLIER FOR DELT =     1.000

                            INITIAL TIME STEP SIZE =   1.000000    

 WELL NO.  LAYER   ROW   COL   STRESS RATE         
 --------------------------------------------------
      1      1      6     16     -0.1000E+05
      2      1      8      5      -5000.    
      3      1     10     19      -8000.    

      3 WELLS

 REACH NO.  LAYER   ROW   COL     STAGE      CONDUCTANCE     BOTTOM EL.         
 -------------------------------------------------------------------------------
      1      1      1     14       94.80           50.00           92.80    
      2      1      1     15       94.80           50.00           92.80    
      3      1      1     16       94.90           50.00           92.90    
      4      1      1     17       94.90           50.00           92.90    
      5      1      1     18       95.00           50.00           93.00    
      6      1      1     19       95.00           50.00           93.00    
      7      1      1     20       95.00           50.00           93.00    
      8      1      2     12       94.70           50.00           92.70    
      9      1      2     13       94.70           50.00           92.70    
     10      1      2     14       94.70           50.00           92.70    
     11      1      3     11       94.60           50.00           92.60    
     12      1      3     12       94.60           50.00           92.60    
     13      1      4     10       94.50           50.00           92.50    
     14      1      4     11       94.50           50.00           92.50    
     15      1      5     10       94.50           50.00           92.50    
     16      1      6      9       94.40           50.00           92.40    
     17      1      6     10       94.40           50.00           92.20    
     18      1      7      9       94.30           50.00           92.30    
     19      1      8      9       94.20           50.00           92.20    
     20      1      9      9       94.10           50.00           92.10    
     21      1     10      9       94.00           50.00           92.00    
     22      1     10     10       94.00           50.00           92.00    
     23      1     11     10       93.50           50.00           91.50    
     24      1     11     11       93.50           50.00           91.50    
     25      1     12     11       93.00           50.00           91.50    
     26      1     12     12       93.00           50.00           91.50    
     27      1     12     13       93.00           50.00           91.50    
     28      1     13     13       92.50           50.00           90.50    
     29      1     13     14       92.50           50.00           90.50    
     30      1     14     14       92.00           50.00           90.00    
     31      1     14     15       92.00           50.00           90.00    
     32      1     15     14       91.50           50.00           89.50    
     33      1     15     15       91.50           50.00           89.50    
     34      1     16     13       91.00           50.00           89.00    
     35      1     16     14       91.00           50.00           89.00    
     36      1     17     10       90.50           50.00           88.50    
     37      1     17     11       90.50           50.00           88.50    
     38      1     17     12       90.50           50.00           88.50    
     39      1     17     13       90.50           50.00           88.50    
     40      1     18      8       90.20           50.00           88.20    
     41      1     18      9       90.20           50.00           88.20    
     42      1     18     10       90.20           50.00           88.20    
     43      1     19      6       90.00           50.00           88.00    
     44      1     19      7       90.00           50.00           88.00    
     45      1     19      8       90.00           50.00           88.00    

     45 RIVER REACHES



                           RECHARGE
 READING ON UNIT   19 WITH FORMAT: (33E15.6)           



               RECHARGE LAYER INDEX
 READING ON UNIT   19 WITH FORMAT: (33I10)             

 SOLVING FOR HEAD 

 CELL CONVERSIONS FOR ITER.=  1  LAYER=  1  STEP=  1  PERIOD=   1   (ROW,COL)
    DRY( 14, 18)   DRY( 15, 18)   

 OUTPUT CONTROL FOR STRESS PERIOD    1   TIME STEP    1
    SAVE HEAD FOR ALL LAYERS
    SAVE DRAWDOWN FOR ALL LAYERS
    SAVE BUDGET
    PRINT HEAD FOR ALL LAYERS
    PRINT BUDGET
 UBDSV2 SAVING "   CONSTANT HEAD" ON UNIT  53 AT TIME STEP  1, STRESS PERIOD   1
 UBDSV1 SAVING "FLOW RIGHT FACE " ON UNIT  53 AT TIME STEP  1, STRESS PERIOD   1
 UBDSV1 SAVING "FLOW FRONT FACE " ON UNIT  53 AT TIME STEP  1, STRESS PERIOD   1
1
              HEAD IN LAYER   1 AT END OF TIME STEP   1 IN STRESS PERIOD    1
  ---------------------------------------------------------------------------

            1           2           3           4           5           6           7           8           9          10
           11          12          13          14          15          16          17          18          19          20
           21          22          23          24          25          26          27          28          29          30
           31          32          33
 ........................................................................................................................
   1   -99.00      -99.00      -99.00      -99.00      -99.00      -99.00      -99.00      -99.00      -99.00      -99.00    
       -99.00      -99.00       92.06       92.11       92.16       92.19       92.22       92.25       92.27       92.30    
        92.32       92.36       92.45       92.61       92.77       92.93       93.08       93.22       93.34       93.45    
        93.53       93.57      -99.00    
   2   -99.00      -99.00       90.70       90.72       90.74       90.78       90.82       90.88       90.96       91.07    
        91.20       91.36       91.53       91.66       91.74       91.83       91.90       91.97       92.04       92.11    
        92.18       92.25       92.40       92.62       92.83       93.03       93.22       93.40       93.55       93.69    
        93.81       93.90       93.97    
   3   -99.00       90.51       90.53       90.55       90.58       90.61       90.65       90.70       90.76       90.84    
        90.93       91.01       91.06       91.15       91.24       91.34       91.46       91.57       91.70       91.84    
        91.96       92.17       92.47       92.75       93.03       93.29       93.55       93.78       94.00       94.18    
        94.33       94.45       94.51    
   4    90.23       90.25       90.27       90.29       90.31       90.33       90.35       90.38       90.42       90.46    
        90.48       90.46       90.46       90.49       90.57       90.67       90.80       90.94       91.08       91.40    
        91.86       92.28       92.66       93.04       93.41       93.77       94.13       94.46       94.77       95.04    
        95.26       95.43       95.52    
   5    89.95       89.96       89.96       89.97       89.98       89.98       89.99       89.99       89.98       89.95    
        89.88       89.78       89.71       89.65       89.61       89.65       89.85       90.10       90.34       90.87    
        91.63       92.30       92.89       93.44       93.98       94.51       95.03       95.52       95.99       96.41    
        96.79       97.07       97.22    
   6    89.59       89.59       89.59       89.60       89.61       89.62       89.63       89.64       89.63       89.55    
        89.37       89.16       88.91       88.49       87.75       86.42       88.03       88.98       89.57       90.43    
        91.58       92.53       93.34       94.08       94.82       95.56       96.29       97.02       97.73       98.40    
        99.12       100.0       100.0    
   7    89.19       89.17       89.14       89.12       89.12       89.22       89.34       89.45       89.54       89.58    
        89.57       89.55       89.52       89.48       89.48       89.56       89.82       90.13       90.45       91.19    
        92.27       93.25       94.14       95.00       95.90       96.83       97.82       98.86       100.0       100.0    
        100.0      -99.00      -99.00    
   8    88.95       88.84       88.62       88.25       87.66       88.49       89.04       89.45       89.71       89.83    
        89.91       89.98       90.05       90.13       90.23       90.39       90.58       90.81       91.07       91.79    
        92.89       93.91       94.86       95.81       96.80       97.84       98.91       100.0      -99.00      -99.00    
       -99.00      -99.00      -99.00    
   9    89.74       89.73       89.71       89.70       89.73       89.86       90.01       90.18       90.30       90.37    
        90.42       90.47       90.51       90.56       90.60       90.66       90.74       90.85       91.04       91.82    
        93.07       94.23       95.31       96.38       97.50       98.70       100.0      -99.00      -99.00      -99.00    
       -99.00      -99.00      -99.00    
  10    90.61       90.61       90.63       90.65       90.69       90.75       90.82       90.90       90.96       90.99    
        91.00       91.01       91.00       90.96       90.87       90.70       90.41       89.97       89.26       90.80    
        92.70       94.20       95.44       96.58       97.70       98.84       100.0      -99.00      -99.00      -99.00    
       -99.00      -99.00      -99.00    
  11    91.33       91.34       91.35       91.38       91.41       91.45       91.49       91.54       91.58       91.62    
        91.65       91.67       91.69       91.72       91.77       91.83       91.90       92.02       92.20       92.93    
        94.10       95.17       96.14       97.08       98.03       99.00       100.0      -99.00      -99.00      -99.00    
       -99.00      -99.00      -99.00    
  12    91.91       91.92       91.93       91.95       91.98       92.02       92.06       92.10       92.12       92.15    
        92.19       92.24       92.30       92.38       92.50       92.66       92.85       93.10       93.39       94.13    
        95.16       96.06       96.86       97.62       98.39       99.19       100.0      -99.00      -99.00      -99.00    
       -99.00      -99.00      -99.00    
  13    92.36       92.37       92.38       92.41       92.43       92.47       92.50       92.52       92.53       92.56    
        92.59       92.64       92.69       92.77       92.86       92.99       93.48       94.35       95.24       95.97    
        96.57       97.14       97.68       98.22       98.79       99.38       100.0      -99.00      -99.00      -99.00    
       -99.00      -99.00      -99.00    
  14    92.67       92.70       92.72       92.74       92.77       92.79       92.81       92.82       92.84       92.86    
        92.89       92.92       92.96       92.99       93.03       93.07       93.12     -1.0000E+30   97.33       97.47    
        97.70       98.00       98.34       98.70       99.11       99.54       100.0      -99.00      -99.00      -99.00    
       -99.00      -99.00      -99.00    
  15   -99.00       92.99       93.00       93.01       93.03       93.05       93.06       93.07       93.09       93.12    
        93.15       93.19       93.23       93.27       93.32       93.37       93.44     -1.0000E+30   97.59       97.73    
        97.96       98.25       98.56       98.91       99.27       99.64       100.0      -99.00      -99.00      -99.00    
       -99.00      -99.00      -99.00    
  16   -99.00       93.18       93.18       93.19       93.21       93.22       93.23       93.25       93.28       93.32    
        93.38       93.44       93.53       93.64       93.81       93.99       94.55       95.42       96.22       96.87    
        97.43       97.96       98.46       98.97       99.49       100.0      -99.00      -99.00      -99.00      -99.00    
       -99.00      -99.00      -99.00    
  17   -99.00       93.27       93.28       93.29       93.30       93.30       93.32       93.34       93.37       93.41    
        93.49       93.59       93.74       93.94       94.18       94.46       94.78       95.07       95.34       95.92    
        96.72       97.47       98.21       99.09       100.0      -99.00      -99.00      -99.00      -99.00      -99.00    
       -99.00      -99.00      -99.00    
  18   -99.00      -99.00       93.31       93.31       93.31       93.31       93.32       93.33       93.37       93.44    
        93.55       93.68       93.85       94.04       94.26       94.49       94.73       94.94       95.12       95.45    
        95.91       96.25       96.44      -99.00      -99.00      -99.00      -99.00      -99.00      -99.00      -99.00    
       -99.00      -99.00      -99.00    
  19   -99.00      -99.00      -99.00      -99.00       93.26       93.26       93.27       93.29       93.34       93.38    
        93.42       93.44      -99.00      -99.00      -99.00      -99.00      -99.00      -99.00      -99.00      -99.00    
       -99.00      -99.00      -99.00      -99.00      -99.00      -99.00      -99.00      -99.00      -99.00      -99.00    
       -99.00      -99.00      -99.00    

 HEAD WILL BE SAVED ON UNIT   51 AT END OF TIME STEP    1, STRESS PERIOD    1

 DRAWDOWN WILL BE SAVED ON UNIT   52 AT END OF TIME STEP    1, STRESS PERIOD    1
1
  VOLUMETRIC BUDGET FOR ENTIRE MODEL AT END OF TIME STEP    1, STRESS PERIOD   1
  ------------------------------------------------------------------------------

     CUMULATIVE VOLUMES      L**3       RATES FOR THIS TIME STEP      L**3/T
     ------------------                 ------------------------

           IN:                                      IN:
           ---                                      ---
             STORAGE =           0.0000               STORAGE =           0.0000
       CONSTANT HEAD =       17731.4102         CONSTANT HEAD =       17731.4102
               WELLS =           0.0000                 WELLS =           0.0000
       RIVER LEAKAGE =        2509.9087         RIVER LEAKAGE =        2509.9087
            RECHARGE =        4900.0000              RECHARGE =        4900.0000

            TOTAL IN =       25141.3184              TOTAL IN =       25141.3184

          OUT:                                     OUT:
          ----                                     ----
             STORAGE =           0.0000               STORAGE =           0.0000
       CONSTANT HEAD =           0.0000         CONSTANT HEAD =           0.0000
               WELLS =       23000.0000                 WELLS =       23000.0000
       RIVER LEAKAGE =        2141.3179         RIVER LEAKAGE =        2141.3179
            RECHARGE =           0.0000              RECHARGE =           0.0000

           TOTAL OUT =       25141.3184             TOTAL OUT =       25141.3184

            IN - OUT =           0.0000              IN - OUT =           0.0000

 PERCENT DISCREPANCY =           0.00     PERCENT DISCREPANCY =           0.00






         TIME SUMMARY AT END OF TIME STEP    1 IN STRESS PERIOD    1
                    SECONDS     MINUTES      HOURS       DAYS        YEARS
                    -----------------------------------------------------------
   TIME STEP LENGTH  86400.      1440.0      24.000      1.0000     2.73785E-03
 STRESS PERIOD TIME  86400.      1440.0      24.000      1.0000     2.73785E-03
         TOTAL TIME  86400.      1440.0      24.000      1.0000     2.73785E-03
1

 Run end date and time (yyyy/mm/dd hh:mm:ss): 2023/08/08 13:22:52
 Elapsed run time:  0.013 Seconds

