                                  MODFLOW-2005     
      U.S. GEOLOGICAL SURVEY MODULAR FINITE-DIFFERENCE GROUND-WATER FLOW MODEL
                            VERSION 1.12.00 2/3/2017

 LIST FILE: ConcPlanViewPaperTrans.list
                         UNIT    2

 OPENING ConcPlanViewPaperTrans.dis
 FILE TYPE:DIS   UNIT   11   STATUS:OLD    
 FORMAT:FORMATTED              ACCESS:SEQUENTIAL          

 OPENING ConcPlanViewPaperTrans.bas
 FILE TYPE:BAS6   UNIT   13   STATUS:OLD    
 FORMAT:FORMATTED              ACCESS:SEQUENTIAL          

 OPENING ConcPlanViewPaperTrans.lpf
 FILE TYPE:LPF   UNIT   15   STATUS:OLD    
 FORMAT:FORMATTED              ACCESS:SEQUENTIAL          

 OPENING ConcPlanViewPaperTrans.wel
 FILE TYPE:WEL   UNIT   20   STATUS:OLD    
 FORMAT:FORMATTED              ACCESS:SEQUENTIAL          

 OPENING ConcPlanViewPaperTrans.riv
 FILE TYPE:RIV   UNIT   18   STATUS:OLD    
 FORMAT:FORMATTED              ACCESS:SEQUENTIAL          

 OPENING ConcPlanViewPaperTrans.rch
 FILE TYPE:RCH   UNIT   19   STATUS:OLD    
 FORMAT:FORMATTED              ACCESS:SEQUENTIAL          

 OPENING ConcPlanViewPaperTrans.oc
 FILE TYPE:OC   UNIT   14   STATUS:OLD    
 FORMAT:FORMATTED              ACCESS:SEQUENTIAL          

 OPENING ConcPlanViewPaperTrans.pcg
 FILE TYPE:PCG   UNIT   27   STATUS:OLD    
 FORMAT:FORMATTED              ACCESS:SEQUENTIAL          

 OPENING ConcPlanViewPaperTrans.cbc
 FILE TYPE:DATA(BINARY)   UNIT   53   STATUS:REPLACE
 FORMAT:UNFORMATTED            ACCESS:STREAM              

 OPENING ConcPlanViewPaperTrans.hds
 FILE TYPE:DATA(BINARY)   UNIT   51   STATUS:REPLACE
 FORMAT:UNFORMATTED            ACCESS:STREAM              

 OPENING ConcPlanViewPaperTrans.ddn
 FILE TYPE:DATA(BINARY)   UNIT   52   STATUS:REPLACE
 FORMAT:UNFORMATTED            ACCESS:STREAM              

 BAS -- BASIC PACKAGE, VERSION 7, 5/2/2005 INPUT READ FROM UNIT   13
 
 MODFLOW was compiled using mixed precision
 Precision of REAL variables:           6
 Precision of DOUBLE PRECISION variables:          15

 DISCRETIZATION INPUT DATA READ FROM UNIT   11
 # DIS package for MODFLOW-2005 generated by Flopy 3.7.0
    1 LAYERS        19 ROWS        33 COLUMNS
    1 STRESS PERIOD(S) IN SIMULATION
 MODEL TIME UNIT IS DAYS
 MODEL LENGTH UNIT IS METERS
  Confining bed flag for each layer:
   0

                     DELR =   100.000    

                     DELC =   100.000    

 TOP ELEVATION OF LAYER 1 =   10.0000    

   MODEL LAYER BOTTOM EL. =   0.00000     FOR LAYER   1


 STRESS PERIOD     LENGTH       TIME STEPS     MULTIPLIER FOR DELT    SS FLAG
 ----------------------------------------------------------------------------
        1         500.0000         30                    1.500         TR

 TRANSIENT SIMULATION



 
 # BAS6 package for MODFLOW-2005 generated by Flopy 3.7.0                        
 THE FREE FORMAT OPTION HAS BEEN SELECTED



                     BOUNDARY ARRAY FOR LAYER   1
 READING ON UNIT   13 WITH FORMAT: (33I10)             

 AQUIFER HEAD WILL BE SET TO  -99.000     AT ALL NO-FLOW NODES (IBOUND=0).



                       INITIAL HEAD FOR LAYER   1
 READING ON UNIT   13 WITH FORMAT: (33E15.6)           
 # OC package for MODFLOW-2005 generated by Flopy 3.7.0

 OUTPUT CONTROL IS SPECIFIED ONLY AT TIME STEPS FOR WHICH OUTPUT IS DESIRED
 COMPACT CELL-BY-CELL BUDGET FILES WILL BE WRITTEN
 AUXILIARY DATA WILL BE SAVED IN CELL-BY-CELL BUDGET FILES
 HEAD PRINT FORMAT CODE IS   0    DRAWDOWN PRINT FORMAT CODE IS   0
 HEADS WILL BE SAVED ON UNIT   51    DRAWDOWNS WILL BE SAVED ON UNIT   52

 LPF -- LAYER-PROPERTY FLOW PACKAGE, VERSION 7, 5/2/2005
         INPUT READ FROM UNIT   15
 # LPF package for MODFLOW-2005 generated by Flopy 3.7.0
 CELL-BY-CELL FLOWS WILL BE SAVED ON UNIT   53
 HEAD AT CELLS THAT CONVERT TO DRY= -1.00000E+30
 No named parameters

   LAYER FLAGS:
 LAYER       LAYTYP        LAYAVG         CHANI        LAYVKA        LAYWET
 ---------------------------------------------------------------------------
    1             0             0     1.000E+00             0             0

   INTERPRETATION OF LAYER FLAGS:
                        INTERBLOCK     HORIZONTAL    DATA IN
         LAYER TYPE   TRANSMISSIVITY   ANISOTROPY   ARRAY VKA   WETTABILITY
 LAYER      (LAYTYP)      (LAYAVG)       (CHANI)      (LAYVKA)      (LAYWET)
 ---------------------------------------------------------------------------
    1      CONFINED      HARMONIC     1.000E+00    VERTICAL K  NON-WETTABLE

 WETTING CAPABILITY IS NOT ACTIVE IN ANY LAYER



              HYD. COND. ALONG ROWS FOR LAYER   1
 READING ON UNIT   15 WITH FORMAT: (33E15.6)           

      VERTICAL HYD. COND. =  1.000000E-05 FOR LAYER   1

         SPECIFIC STORAGE =  1.000000E-02 FOR LAYER   1

 WEL -- WELL PACKAGE, VERSION 7, 5/2/2005 INPUT READ FROM UNIT   20
 # WEL package for MODFLOW-2005 generated by Flopy 3.7.0
 No named parameters
 MAXIMUM OF      3 ACTIVE WELLS AT ONE TIME


     0 Well parameters

 RIV -- RIVER PACKAGE, VERSION 7, 5/2/2005 INPUT READ FROM UNIT   18
 # RIV package for MODFLOW-2005 generated by Flopy 3.7.0
 No named parameters
 MAXIMUM OF     45 ACTIVE RIVER REACHES AT ONE TIME


     0 River parameters

 RCH -- RECHARGE PACKAGE, VERSION 7, 5/2/2005 INPUT READ FROM UNIT   19
 # RCH package for MODFLOW-2005 generated by Flopy 3.7.0
 No named parameters
 OPTION 2 -- RECHARGE TO ONE SPECIFIED NODE IN EACH VERTICAL COLUMN


     0 Recharge parameters

 PCG -- CONJUGATE-GRADIENT SOLUTION PACKAGE, VERSION 7, 5/2/2005
 # PCG package for MODFLOW-2005 generated by Flopy 3.7.0
 MAXIMUM OF   1000 CALLS OF SOLUTION ROUTINE
 MAXIMUM OF     30 INTERNAL ITERATIONS PER CALL TO SOLUTION ROUTINE
 MATRIX PRECONDITIONING TYPE :    1



                                    SOLUTION BY THE CONJUGATE-GRADIENT METHOD
                                   -------------------------------------------
                    MAXIMUM NUMBER OF CALLS TO PCG ROUTINE =     1000
                        MAXIMUM ITERATIONS PER CALL TO PCG =       30
                               MATRIX PRECONDITIONING TYPE =        1
        RELAXATION FACTOR (ONLY USED WITH PRECOND. TYPE 1) =    0.80000E+00
 PARAMETER OF POLYNOMIAL PRECOND. = 2 (2) OR IS CALCULATED :        0
                         HEAD CHANGE CRITERION FOR CLOSURE =    0.10000E-04
                     RESIDUAL CHANGE CRITERION FOR CLOSURE =    0.10000E-04
            PCG HEAD AND RESIDUAL CHANGE PRINTOUT INTERVAL =      999
     PRINTING FROM SOLVER IS LIMITED(1) OR SUPPRESSED (>1) =        3
                            STEADY-STATE DAMPING PARAMETER =    0.10000E+01
                               TRANSIENT DAMPING PARAMETER =    0.10000E+01
1
                            STRESS PERIOD NO.    1, LENGTH =   500.0000    
                            -----------------------------------------------

                              NUMBER OF TIME STEPS =    30

                               MULTIPLIER FOR DELT =     1.500

                            INITIAL TIME STEP SIZE =  0.1303781E-02

 WELL NO.  LAYER   ROW   COL   STRESS RATE         
 --------------------------------------------------
      1      1      6     16     -0.2000E+05
      2      1      8      5     -0.1000E+05
      3      1     10     19      -5000.    

      3 WELLS

 REACH NO.  LAYER   ROW   COL     STAGE      CONDUCTANCE     BOTTOM EL.         
 -------------------------------------------------------------------------------
      1      1      1     14       94.80           50.00           92.80    
      2      1      1     15       94.80           50.00           92.80    
      3      1      1     16       94.90           50.00           92.90    
      4      1      1     17       94.90           50.00           92.90    
      5      1      1     18       95.00           50.00           93.00    
      6      1      1     19       95.00           50.00           93.00    
      7      1      1     20       95.00           50.00           93.00    
      8      1      2     12       94.70           50.00           92.70    
      9      1      2     13       94.70           50.00           92.70    
     10      1      2     14       94.70           50.00           92.70    
     11      1      3     11       94.60           50.00           92.60    
     12      1      3     12       94.60           50.00           92.60    
     13      1      4     10       94.50           50.00           92.50    
     14      1      4     11       94.50           50.00           92.50    
     15      1      5     10       94.50           50.00           92.50    
     16      1      6      9       94.40           50.00           92.40    
     17      1      6     10       94.40           50.00           92.20    
     18      1      7      9       94.30           50.00           92.30    
     19      1      8      9       94.20           50.00           92.20    
     20      1      9      9       94.10           50.00           92.10    
     21      1     10      9       94.00           50.00           92.00    
     22      1     10     10       94.00           50.00           92.00    
     23      1     11     10       93.50           50.00           91.50    
     24      1     11     11       93.50           50.00           91.50    
     25      1     12     11       93.00           50.00           91.50    
     26      1     12     12       93.00           50.00           91.50    
     27      1     12     13       93.00           50.00           91.50    
     28      1     13     13       92.50           50.00           90.50    
     29      1     13     14       92.50           50.00           90.50    
     30      1     14     14       92.00           50.00           90.00    
     31      1     14     15       92.00           50.00           90.00    
     32      1     15     14       91.50           50.00           89.50    
     33      1     15     15       91.50           50.00           89.50    
     34      1     16     13       91.00           50.00           89.00    
     35      1     16     14       91.00           50.00           89.00    
     36      1     17     10       90.50           50.00           88.50    
     37      1     17     11       90.50           50.00           88.50    
     38      1     17     12       90.50           50.00           88.50    
     39      1     17     13       90.50           50.00           88.50    
     40      1     18      8       90.20           50.00           88.20    
     41      1     18      9       90.20           50.00           88.20    
     42      1     18     10       90.20           50.00           88.20    
     43      1     19      6       90.00           50.00           88.00    
     44      1     19      7       90.00           50.00           88.00    
     45      1     19      8       90.00           50.00           88.00    

     45 RIVER REACHES



                           RECHARGE
 READING ON UNIT   19 WITH FORMAT: (33E15.6)           



               RECHARGE LAYER INDEX
 READING ON UNIT   19 WITH FORMAT: (33I10)             
 
 SOLVING FOR HEAD 

 OUTPUT CONTROL FOR STRESS PERIOD    1   TIME STEP    1
    SAVE HEAD FOR ALL LAYERS
    SAVE DRAWDOWN FOR ALL LAYERS
    SAVE BUDGET
    PRINT HEAD FOR ALL LAYERS
    PRINT BUDGET
 UBDSV1 SAVING "         STORAGE" ON UNIT  53 AT TIME STEP  1, STRESS PERIOD   1
 UBDSV2 SAVING "   CONSTANT HEAD" ON UNIT  53 AT TIME STEP  1, STRESS PERIOD   1
 UBDSV1 SAVING "FLOW RIGHT FACE " ON UNIT  53 AT TIME STEP  1, STRESS PERIOD   1
 UBDSV1 SAVING "FLOW FRONT FACE " ON UNIT  53 AT TIME STEP  1, STRESS PERIOD   1
1
              HEAD IN LAYER   1 AT END OF TIME STEP   1 IN STRESS PERIOD    1
  ---------------------------------------------------------------------------

            1           2           3           4           5           6           7           8           9          10
           11          12          13          14          15          16          17          18          19          20
           21          22          23          24          25          26          27          28          29          30
           31          32          33
 ........................................................................................................................
   1   -99.00      -99.00      -99.00      -99.00      -99.00      -99.00      -99.00      -99.00      -99.00      -99.00    
       -99.00      -99.00      100.00      100.00      100.00      100.00      100.00      100.00      100.00      100.00    
        100.0       100.0       100.0       100.0       100.0       100.0       100.0       100.0       100.0       100.0    
        100.0       100.0      -99.00    
   2   -99.00      -99.00       100.0       100.0       100.0       100.0       100.0       100.0       100.0      100.00    
        99.95       99.95       99.95       99.95       99.94      100.00       100.0       100.0       100.0       100.0    
        100.0       100.0       100.0       100.0       100.0       100.0       100.0       100.0       100.0       100.0    
        100.0       100.0       100.0    
   3   -99.00       100.0       100.0       100.0       100.0       100.0       100.0       100.0      100.00       99.95    
        65.09       65.05       65.05       65.05       65.15       99.91      100.00       100.0       100.0       100.0    
        100.0       100.0       100.0       100.0       100.0       100.0       100.0       100.0       100.0       100.0    
        100.0       100.0       100.0    
   4    100.0       100.0       100.0       100.0       100.0       100.0       100.0       100.0      100.00       99.95    
        65.05       65.00       64.94       65.00       65.09       99.91      100.00       100.0       100.0       100.0    
        100.0       100.0       100.0       100.0       100.0       100.0       100.0       100.0       100.0       100.0    
        100.0       100.0       100.0    
   5    100.0       100.0       100.0       100.0       100.0       100.0       100.0       100.0      100.00       99.95    
        65.05       64.96       40.24       64.94       65.09       99.91      100.00       100.0       100.0       100.0    
        100.0       100.0       100.0       100.0       100.0       100.0       100.0       100.0       100.0       100.0    
        100.0       100.0       100.0    
   6    100.0       100.0       100.0       100.0       100.0       100.0       100.0       100.0      100.00       99.95    
        65.05       65.00       64.94       65.00       65.09       99.88      100.00       100.0       100.0       100.0    
        100.0       100.0       100.0       100.0       100.0       100.0       100.0       100.0       100.0       100.0    
        100.0       100.0       100.0    
   7    100.0       100.0       100.0       100.0       100.0       100.0       100.0       100.0      100.00       99.94    
        65.06       65.00       65.00       65.00       65.09       99.91      100.00       100.0       100.0       100.0    
        100.0       100.0       100.0       100.0       100.0       100.0       100.0       100.0       100.0       100.0    
        100.0      -99.00      -99.00    
   8    100.0       100.0       100.0       100.0       99.99       100.0       100.0       100.0      100.00       99.91    
        65.09       65.00       65.00       65.00       65.09       99.91      100.00       100.0       100.0       100.0    
        100.0       100.0       100.0       100.0       100.0       100.0       100.0       100.0      -99.00      -99.00    
       -99.00      -99.00      -99.00    
   9    100.0       100.0       100.0       100.0       100.0       100.0       100.0       100.0      100.00       99.91    
        65.09       65.00       64.94       65.00       65.09       99.91      100.00       100.0       100.0       100.0    
        100.0       100.0       100.0       100.0       100.0       100.0       100.0      -99.00      -99.00      -99.00    
       -99.00      -99.00      -99.00    
  10    100.0       100.0       100.0       100.0       100.0       100.0       100.0       100.0      100.00       99.91    
        65.09       64.94       40.26       64.94       65.09       99.91      100.00       100.0       99.99       100.0    
        100.0       100.0       100.0       100.0       100.0       100.0       100.0      -99.00      -99.00      -99.00    
       -99.00      -99.00      -99.00    
  11    100.0       100.0       100.0       100.0       100.0       100.0       100.0       100.0      100.00       99.91    
        65.09       65.00       64.94       65.00       65.09       99.91      100.00       100.0       100.0       100.0    
        100.0       100.0       100.0       100.0       100.0       100.0       100.0      -99.00      -99.00      -99.00    
       -99.00      -99.00      -99.00    
  12    100.0       100.0       100.0       100.0       100.0       100.0       100.0       100.0      100.00       99.91    
        65.18       65.09       65.09       65.09       65.18       99.91      100.00       100.0       100.0       100.0    
        100.0       100.0       100.0       100.0       100.0       100.0       100.0      -99.00      -99.00      -99.00    
       -99.00      -99.00      -99.00    
  13    100.0       100.0       100.0       100.0       100.0       100.0       100.0       100.0       100.0      100.00    
        99.91       99.91       99.91       99.91       99.91      100.00       100.0       100.0       100.0       100.0    
        100.0       100.0       100.0       100.0       100.0       100.0       100.0      -99.00      -99.00      -99.00    
       -99.00      -99.00      -99.00    
  14    100.0       100.0       100.0       100.0       100.0       100.0       100.0       100.0       100.0       100.0    
       100.00      100.00      100.00      100.00      100.00       100.0       100.0       100.0       100.0       100.0    
        100.0       100.0       100.0       100.0       100.0       100.0       100.0      -99.00      -99.00      -99.00    
       -99.00      -99.00      -99.00    
  15   -99.00       100.0       100.0       100.0       100.0       100.0       100.0       100.0       100.0       100.0    
        100.0       100.0       100.0      100.00      100.00       100.0       100.0       100.0       100.0       100.0    
        100.0       100.0       100.0       100.0       100.0       100.0       100.0      -99.00      -99.00      -99.00    
       -99.00      -99.00      -99.00    
  16   -99.00       100.0       100.0       100.0       100.0       100.0       100.0       100.0       100.0       100.0    
        100.0       100.0      100.00      100.00       100.0       100.0       100.0       100.0       100.0       100.0    
        100.0       100.0       100.0       100.0       100.0       100.0      -99.00      -99.00      -99.00      -99.00    
       -99.00      -99.00      -99.00    
  17   -99.00       100.0       100.0       100.0       100.0       100.0       100.0       100.0       100.0      100.00    
       100.00      100.00      100.00       100.0       100.0       100.0       100.0       100.0       100.0       100.0    
        100.0       100.0       100.0       100.0       100.0      -99.00      -99.00      -99.00      -99.00      -99.00    
       -99.00      -99.00      -99.00    
  18   -99.00      -99.00       100.0       100.0       100.0       100.0       100.0      100.00      100.00      100.00    
        100.0       100.0       100.0       100.0       100.0       100.0       100.0       100.0       100.0       100.0    
        100.0       100.0       100.0      -99.00      -99.00      -99.00      -99.00      -99.00      -99.00      -99.00    
       -99.00      -99.00      -99.00    
  19   -99.00      -99.00      -99.00      -99.00       100.0      100.00      100.00      100.00       100.0       100.0    
        100.0       100.0      -99.00      -99.00      -99.00      -99.00      -99.00      -99.00      -99.00      -99.00    
       -99.00      -99.00      -99.00      -99.00      -99.00      -99.00      -99.00      -99.00      -99.00      -99.00    
       -99.00      -99.00      -99.00    

 HEAD WILL BE SAVED ON UNIT   51 AT END OF TIME STEP    1, STRESS PERIOD    1

 DRAWDOWN WILL BE SAVED ON UNIT   52 AT END OF TIME STEP    1, STRESS PERIOD    1
1
  VOLUMETRIC BUDGET FOR ENTIRE MODEL AT END OF TIME STEP    1, STRESS PERIOD   1
  ------------------------------------------------------------------------------

     CUMULATIVE VOLUMES      L**3       RATES FOR THIS TIME STEP      L**3/T
     ------------------                 ------------------------

           IN:                                      IN:
           ---                                      ---
             STORAGE =        2851.8372               STORAGE =     2187359.7500
       CONSTANT HEAD =           0.0000         CONSTANT HEAD =           0.0000
               WELLS =           0.0000                 WELLS =           0.0000
       RIVER LEAKAGE =           0.8149         RIVER LEAKAGE =         625.0000
            RECHARGE =           6.4146              RECHARGE =        4920.0000

            TOTAL IN =        2859.0667              TOTAL IN =     2192904.7500

          OUT:                                     OUT:
          ----                                     ----
             STORAGE =        2793.4612               STORAGE =     2142585.2500
       CONSTANT HEAD =       1.2482E-04         CONSTANT HEAD =       9.5736E-02
               WELLS =          45.6323                 WELLS =       35000.0000
       RIVER LEAKAGE =          17.7540         RIVER LEAKAGE =       13617.3115
            RECHARGE =           0.0000              RECHARGE =           0.0000

           TOTAL OUT =        2856.8477             TOTAL OUT =     2191202.5000

            IN - OUT =           2.2190              IN - OUT =        1702.2500

 PERCENT DISCREPANCY =           0.08     PERCENT DISCREPANCY =           0.08






         TIME SUMMARY AT END OF TIME STEP    1 IN STRESS PERIOD    1
                    SECONDS     MINUTES      HOURS       DAYS        YEARS
                    -----------------------------------------------------------
   TIME STEP LENGTH  112.65      1.8774     3.12907E-02 1.30378E-03 3.56956E-06
 STRESS PERIOD TIME  112.65      1.8774     3.12907E-02 1.30378E-03 3.56956E-06
         TOTAL TIME  112.65      1.8774     3.12907E-02 1.30378E-03 3.56956E-06
1
 
 SOLVING FOR HEAD 

 OUTPUT CONTROL FOR STRESS PERIOD    1   TIME STEP    2
    SAVE HEAD FOR ALL LAYERS
    SAVE DRAWDOWN FOR ALL LAYERS
    SAVE BUDGET
    PRINT HEAD FOR ALL LAYERS
    PRINT BUDGET
 UBDSV1 SAVING "         STORAGE" ON UNIT  53 AT TIME STEP  2, STRESS PERIOD   1
 UBDSV2 SAVING "   CONSTANT HEAD" ON UNIT  53 AT TIME STEP  2, STRESS PERIOD   1
 UBDSV1 SAVING "FLOW RIGHT FACE " ON UNIT  53 AT TIME STEP  2, STRESS PERIOD   1
 UBDSV1 SAVING "FLOW FRONT FACE " ON UNIT  53 AT TIME STEP  2, STRESS PERIOD   1
1
              HEAD IN LAYER   1 AT END OF TIME STEP   2 IN STRESS PERIOD    1
  ---------------------------------------------------------------------------

            1           2           3           4           5           6           7           8           9          10
           11          12          13          14          15          16          17          18          19          20
           21          22          23          24          25          26          27          28          29          30
           31          32          33
 ........................................................................................................................
   1   -99.00      -99.00      -99.00      -99.00      -99.00      -99.00      -99.00      -99.00      -99.00      -99.00    
       -99.00      -99.00      100.00      100.00      100.00      100.00      100.00      100.00      100.00      100.00    
        100.0       100.0       100.0       100.0       100.0       100.0       100.0       100.0       100.0       100.0    
        100.0       100.0      -99.00    
   2   -99.00      -99.00       100.0       100.0       100.0       100.0       100.0       100.0       100.0      100.00    
        99.89       99.89       99.89       99.89       99.85      100.00       100.0       100.0       100.0       100.0    
        100.0       100.0       100.0       100.0       100.0       100.0       100.0       100.0       100.0       100.0    
        100.0       100.0       100.0    
   3   -99.00       100.0       100.0       100.0       100.0       100.0       100.0       100.0      100.00       99.89    
        65.23       65.11       65.11       65.11       65.37       99.78      100.00       100.0       100.0       100.0    
        100.0       100.0       100.0       100.0       100.0       100.0       100.0       100.0       100.0       100.0    
        100.0       100.0       100.0    
   4    100.0       100.0       100.0       100.0       100.0       100.0       100.0       100.0      100.00       99.89    
        65.11       65.00       64.84       65.00       65.23       99.78      100.00       100.0       100.0       100.0    
        100.0       100.0       100.0       100.0       100.0       100.0       100.0       100.0       100.0       100.0    
        100.0       100.0       100.0    
   5    100.0       100.0       100.0       100.0       100.0       100.0       100.0       100.0      100.00       99.89    
        65.11       64.89       40.58       64.84       65.22       99.77      100.00       100.0       100.0       100.0    
        100.0       100.0       100.0       100.0       100.0       100.0       100.0       100.0       100.0       100.0    
        100.0       100.0       100.0    
   6    100.0       100.0       100.0       100.0       100.0       100.0       100.0       100.0      100.00       99.89    
        65.11       65.00       64.84       65.00       65.22       99.71      100.00       100.0       100.0       100.0    
        100.0       100.0       100.0       100.0       100.0       100.0       100.0       100.0       100.0       100.0    
        100.0       100.0       100.0    
   7    100.0       100.0       100.0       100.0       100.0       100.0       100.0       100.0      100.00       99.85    
        65.15       65.00       65.00       65.00       65.22       99.77      100.00       100.0       100.0       100.0    
        100.0       100.0       100.0       100.0       100.0       100.0       100.0       100.0       100.0       100.0    
        100.0      -99.00      -99.00    
   8    100.0       100.0       100.0       100.0       99.97       100.0       100.0       100.0      100.00       99.78    
        65.22       65.00       65.00       65.00       65.22       99.78      100.00       100.0       100.0       100.0    
        100.0       100.0       100.0       100.0       100.0       100.0       100.0       100.0      -99.00      -99.00    
       -99.00      -99.00      -99.00    
   9    100.0       100.0       100.0       100.0       100.0       100.0       100.0       100.0      100.00       99.78    
        65.22       65.00       64.84       65.00       65.22       99.78      100.00       100.0       100.0       100.0    
        100.0       100.0       100.0       100.0       100.0       100.0       100.0      -99.00      -99.00      -99.00    
       -99.00      -99.00      -99.00    
  10    100.0       100.0       100.0       100.0       100.0       100.0       100.0       100.0      100.00       99.77    
        65.22       64.84       40.64       64.84       65.22       99.78      100.00       100.0       99.98       100.0    
        100.0       100.0       100.0       100.0       100.0       100.0       100.0      -99.00      -99.00      -99.00    
       -99.00      -99.00      -99.00    
  11    100.0       100.0       100.0       100.0       100.0       100.0       100.0       100.0      100.00       99.77    
        65.23       65.00       64.84       65.00       65.23       99.78      100.00       100.0       100.0       100.0    
        100.0       100.0       100.0       100.0       100.0       100.0       100.0      -99.00      -99.00      -99.00    
       -99.00      -99.00      -99.00    
  12    100.0       100.0       100.0       100.0       100.0       100.0       100.0       100.0      100.00       99.78    
        65.45       65.23       65.22       65.23       65.45       99.78      100.00       100.0       100.0       100.0    
        100.0       100.0       100.0       100.0       100.0       100.0       100.0      -99.00      -99.00      -99.00    
       -99.00      -99.00      -99.00    
  13    100.0       100.0       100.0       100.0       100.0       100.0       100.0       100.0       100.0      100.00    
        99.78       99.78       99.77       99.77       99.78      100.00       100.0       100.0       100.0       100.0    
        100.0       100.0       100.0       100.0       100.0       100.0       100.0      -99.00      -99.00      -99.00    
       -99.00      -99.00      -99.00    
  14    100.0       100.0       100.0       100.0       100.0       100.0       100.0       100.0       100.0       100.0    
       100.00      100.00      100.00      100.00      100.00       100.0       100.0       100.0       100.0       100.0    
        100.0       100.0       100.0       100.0       100.0       100.0       100.0      -99.00      -99.00      -99.00    
       -99.00      -99.00      -99.00    
  15   -99.00       100.0       100.0       100.0       100.0       100.0       100.0       100.0       100.0       100.0    
        100.0       100.0       100.0      100.00      100.00       100.0       100.0       100.0       100.0       100.0    
        100.0       100.0       100.0       100.0       100.0       100.0       100.0      -99.00      -99.00      -99.00    
       -99.00      -99.00      -99.00    
  16   -99.00       100.0       100.0       100.0       100.0       100.0       100.0       100.0       100.0       100.0    
        100.0       100.0      100.00      100.00       100.0       100.0       100.0       100.0       100.0       100.0    
        100.0       100.0       100.0       100.0       100.0       100.0      -99.00      -99.00      -99.00      -99.00    
       -99.00      -99.00      -99.00    
  17   -99.00       100.0       100.0       100.0       100.0       100.0       100.0       100.0       100.0      100.00    
       100.00      100.00      100.00       100.0       100.0       100.0       100.0       100.0       100.0       100.0    
        100.0       100.0       100.0       100.0       100.0      -99.00      -99.00      -99.00      -99.00      -99.00    
       -99.00      -99.00      -99.00    
  18   -99.00      -99.00       100.0       100.0       100.0       100.0       100.0      100.00      100.00      100.00    
        100.0       100.0       100.0       100.0       100.0       100.0       100.0       100.0       100.0       100.0    
        100.0       100.0       100.0      -99.00      -99.00      -99.00      -99.00      -99.00      -99.00      -99.00    
       -99.00      -99.00      -99.00    
  19   -99.00      -99.00      -99.00      -99.00       100.0      100.00      100.00      100.00       100.0       100.0    
        100.0       100.0      -99.00      -99.00      -99.00      -99.00      -99.00      -99.00      -99.00      -99.00    
       -99.00      -99.00      -99.00      -99.00      -99.00      -99.00      -99.00      -99.00      -99.00      -99.00    
       -99.00      -99.00      -99.00    

 HEAD WILL BE SAVED ON UNIT   51 AT END OF TIME STEP    2, STRESS PERIOD    1

 DRAWDOWN WILL BE SAVED ON UNIT   52 AT END OF TIME STEP    2, STRESS PERIOD    1
1
  VOLUMETRIC BUDGET FOR ENTIRE MODEL AT END OF TIME STEP    2, STRESS PERIOD   1
  ------------------------------------------------------------------------------

     CUMULATIVE VOLUMES      L**3       RATES FOR THIS TIME STEP      L**3/T
     ------------------                 ------------------------

           IN:                                      IN:
           ---                                      ---
             STORAGE =        7079.5215               STORAGE =     2161756.5000
       CONSTANT HEAD =           0.0000         CONSTANT HEAD =           0.0000
               WELLS =           0.0000                 WELLS =           0.0000
       RIVER LEAKAGE =           2.0372         RIVER LEAKAGE =         625.0000
            RECHARGE =          16.0365              RECHARGE =        4920.0000

            TOTAL IN =        7097.5952              TOTAL IN =     2167301.5000

          OUT:                                     OUT:
          ----                                     ----
             STORAGE =        6935.3330               STORAGE =     2117878.0000
       CONSTANT HEAD =       5.2583E-04         CONSTANT HEAD =           0.2050
               WELLS =         114.0808                 WELLS =       35000.0000
       RIVER LEAKAGE =          44.2896         RIVER LEAKAGE =       13568.5625
            RECHARGE =           0.0000              RECHARGE =           0.0000

           TOTAL OUT =        7093.7036             TOTAL OUT =     2166446.7500

            IN - OUT =           3.8916              IN - OUT =         854.7500

 PERCENT DISCREPANCY =           0.05     PERCENT DISCREPANCY =           0.04






         TIME SUMMARY AT END OF TIME STEP    2 IN STRESS PERIOD    1
                    SECONDS     MINUTES      HOURS       DAYS        YEARS
                    -----------------------------------------------------------
   TIME STEP LENGTH  168.97      2.8162     4.69361E-02 1.95567E-03 5.35433E-06
 STRESS PERIOD TIME  281.62      4.6936     7.82268E-02 3.25945E-03 8.92389E-06
         TOTAL TIME  281.62      4.6936     7.82268E-02 3.25945E-03 8.92389E-06
1
 
 SOLVING FOR HEAD 

 OUTPUT CONTROL FOR STRESS PERIOD    1   TIME STEP    3
    SAVE HEAD FOR ALL LAYERS
    SAVE DRAWDOWN FOR ALL LAYERS
    SAVE BUDGET
    PRINT HEAD FOR ALL LAYERS
    PRINT BUDGET
 UBDSV1 SAVING "         STORAGE" ON UNIT  53 AT TIME STEP  3, STRESS PERIOD   1
 UBDSV2 SAVING "   CONSTANT HEAD" ON UNIT  53 AT TIME STEP  3, STRESS PERIOD   1
 UBDSV1 SAVING "FLOW RIGHT FACE " ON UNIT  53 AT TIME STEP  3, STRESS PERIOD   1
 UBDSV1 SAVING "FLOW FRONT FACE " ON UNIT  53 AT TIME STEP  3, STRESS PERIOD   1
1
              HEAD IN LAYER   1 AT END OF TIME STEP   3 IN STRESS PERIOD    1
  ---------------------------------------------------------------------------

            1           2           3           4           5           6           7           8           9          10
           11          12          13          14          15          16          17          18          19          20
           21          22          23          24          25          26          27          28          29          30
           31          32          33
 ........................................................................................................................
   1   -99.00      -99.00      -99.00      -99.00      -99.00      -99.00      -99.00      -99.00      -99.00      -99.00    
       -99.00      -99.00      100.00      100.00      100.00      100.00      100.00      100.00      100.00      100.00    
        100.0       100.0       100.0       100.0       100.0       100.0       100.0       100.0       100.0       100.0    
        100.0       100.0      -99.00    
   2   -99.00      -99.00       100.0       100.0       100.0       100.0       100.0       100.0       100.0      100.00    
        99.79       99.78       99.78       99.78       99.72      100.00       100.0       100.0       100.0       100.0    
        100.0       100.0       100.0       100.0       100.0       100.0       100.0       100.0       100.0       100.0    
        100.0       100.0       100.0    
   3   -99.00       100.0       100.0       100.0       100.0       100.0       100.0       100.0      100.00       99.79    
        65.43       65.22       65.21       65.22       65.70       99.58      100.00       100.0       100.0       100.0    
        100.0       100.0       100.0       100.0       100.0       100.0       100.0       100.0       100.0       100.0    
        100.0       100.0       100.0    
   4    100.0       100.0       100.0       100.0       100.0       100.0       100.0       100.0      100.00       99.78    
        65.22       65.00       64.71       65.00       65.43       99.58      100.00       100.0       100.0       100.0    
        100.0       100.0       100.0       100.0       100.0       100.0       100.0       100.0       100.0       100.0    
        100.0       100.0       100.0    
   5    100.0       100.0       100.0       100.0       100.0       100.0       100.0       100.0      100.00       99.78    
        65.21       64.80       41.09       64.71       65.42       99.58      100.00       100.0       100.0       100.0    
        100.0       100.0       100.0       100.0       100.0       100.0       100.0       100.0       100.0       100.0    
        100.0       100.0       100.0    
   6    100.0       100.0       100.0       100.0       100.0       100.0       100.0       100.0      100.00       99.78    
        65.21       65.00       64.71       65.00       65.42       99.46      100.00       100.0       100.0       100.0    
        100.0       100.0       100.0       100.0       100.0       100.0       100.0       100.0       100.0       100.0    
        100.0       100.0       100.0    
   7    100.0       100.0       100.0       100.0      100.00       100.0       100.0       100.0      100.00       99.71    
        65.28       65.00       65.00       65.00       65.42       99.58      100.00       100.0       100.0       100.0    
        100.0       100.0       100.0       100.0       100.0       100.0       100.0       100.0       100.0       100.0    
        100.0      -99.00      -99.00    
   8    100.0       100.0       100.0      100.00       99.94      100.00       100.0       100.0       99.99       99.58    
        65.42       65.00       65.00       65.00       65.42       99.58      100.00       100.0       100.0       100.0    
        100.0       100.0       100.0       100.0       100.0       100.0       100.0       100.0      -99.00      -99.00    
       -99.00      -99.00      -99.00    
   9    100.0       100.0       100.0       100.0      100.00       100.0       100.0       100.0       99.99       99.58    
        65.42       65.00       64.71       65.00       65.42       99.58      100.00       100.0      100.00       100.0    
        100.0       100.0       100.0       100.0       100.0       100.0       100.0      -99.00      -99.00      -99.00    
       -99.00      -99.00      -99.00    
  10    100.0       100.0       100.0       100.0       100.0       100.0       100.0       100.0       99.99       99.58    
        65.42       64.71       41.19       64.71       65.42       99.58      100.00      100.00       99.97      100.00    
        100.0       100.0       100.0       100.0       100.0       100.0       100.0      -99.00      -99.00      -99.00    
       -99.00      -99.00      -99.00    
  11    100.0       100.0       100.0       100.0       100.0       100.0       100.0       100.0      100.00       99.58    
        65.43       65.00       64.71       65.00       65.43       99.58      100.00       100.0      100.00       100.0    
        100.0       100.0       100.0       100.0       100.0       100.0       100.0      -99.00      -99.00      -99.00    
       -99.00      -99.00      -99.00    
  12    100.0       100.0       100.0       100.0       100.0       100.0       100.0       100.0      100.00       99.58    
        65.84       65.43       65.42       65.43       65.84       99.58      100.00       100.0       100.0       100.0    
        100.0       100.0       100.0       100.0       100.0       100.0       100.0      -99.00      -99.00      -99.00    
       -99.00      -99.00      -99.00    
  13    100.0       100.0       100.0       100.0       100.0       100.0       100.0       100.0       100.0       99.99    
        99.58       99.58       99.58       99.58       99.58       99.99       100.0       100.0       100.0       100.0    
        100.0       100.0       100.0       100.0       100.0       100.0       100.0      -99.00      -99.00      -99.00    
       -99.00      -99.00      -99.00    
  14    100.0       100.0       100.0       100.0       100.0       100.0       100.0       100.0       100.0       100.0    
       100.00      100.00      100.00       99.99       99.99       100.0       100.0       100.0       100.0       100.0    
        100.0       100.0       100.0       100.0       100.0       100.0       100.0      -99.00      -99.00      -99.00    
       -99.00      -99.00      -99.00    
  15   -99.00       100.0       100.0       100.0       100.0       100.0       100.0       100.0       100.0       100.0    
        100.0       100.0       100.0      100.00      100.00       100.0       100.0       100.0       100.0       100.0    
        100.0       100.0       100.0       100.0       100.0       100.0       100.0      -99.00      -99.00      -99.00    
       -99.00      -99.00      -99.00    
  16   -99.00       100.0       100.0       100.0       100.0       100.0       100.0       100.0       100.0       100.0    
        100.0       100.0      100.00      100.00       100.0       100.0       100.0       100.0       100.0       100.0    
        100.0       100.0       100.0       100.0       100.0       100.0      -99.00      -99.00      -99.00      -99.00    
       -99.00      -99.00      -99.00    
  17   -99.00       100.0       100.0       100.0       100.0       100.0       100.0       100.0       100.0      100.00    
       100.00      100.00      100.00       100.0       100.0       100.0       100.0       100.0       100.0       100.0    
        100.0       100.0       100.0       100.0       100.0      -99.00      -99.00      -99.00      -99.00      -99.00    
       -99.00      -99.00      -99.00    
  18   -99.00      -99.00       100.0       100.0       100.0       100.0       100.0      100.00      100.00      100.00    
        100.0       100.0       100.0       100.0       100.0       100.0       100.0       100.0       100.0       100.0    
        100.0       100.0       100.0      -99.00      -99.00      -99.00      -99.00      -99.00      -99.00      -99.00    
       -99.00      -99.00      -99.00    
  19   -99.00      -99.00      -99.00      -99.00       100.0      100.00      100.00      100.00       100.0       100.0    
        100.0       100.0      -99.00      -99.00      -99.00      -99.00      -99.00      -99.00      -99.00      -99.00    
       -99.00      -99.00      -99.00      -99.00      -99.00      -99.00      -99.00      -99.00      -99.00      -99.00    
       -99.00      -99.00      -99.00    

 HEAD WILL BE SAVED ON UNIT   51 AT END OF TIME STEP    3, STRESS PERIOD    1

 DRAWDOWN WILL BE SAVED ON UNIT   52 AT END OF TIME STEP    3, STRESS PERIOD    1
1
  VOLUMETRIC BUDGET FOR ENTIRE MODEL AT END OF TIME STEP    3, STRESS PERIOD   1
  ------------------------------------------------------------------------------

     CUMULATIVE VOLUMES      L**3       RATES FOR THIS TIME STEP      L**3/T
     ------------------                 ------------------------

           IN:                                      IN:
           ---                                      ---
             STORAGE =       13312.1797               STORAGE =     2124644.7500
       CONSTANT HEAD =           0.0000         CONSTANT HEAD =           0.0000
               WELLS =           0.0000                 WELLS =           0.0000
       RIVER LEAKAGE =           3.8706         RIVER LEAKAGE =         625.0000
            RECHARGE =          30.4694              RECHARGE =        4920.0000

            TOTAL IN =       13346.5195              TOTAL IN =     2130189.7500

          OUT:                                     OUT:
          ----                                     ----
             STORAGE =       13044.2051               STORAGE =     2082447.1250
       CONSTANT HEAD =       2.3291E-03         CONSTANT HEAD =           0.6147
               WELLS =         216.7535                 WELLS =       35000.0000
       RIVER LEAKAGE =          83.8804         RIVER LEAKAGE =       13496.0459
            RECHARGE =           0.0000              RECHARGE =           0.0000

           TOTAL OUT =       13344.8408             TOTAL OUT =     2130943.7500

            IN - OUT =           1.6787              IN - OUT =        -754.0000

 PERCENT DISCREPANCY =           0.01     PERCENT DISCREPANCY =          -0.04






         TIME SUMMARY AT END OF TIME STEP    3 IN STRESS PERIOD    1
                    SECONDS     MINUTES      HOURS       DAYS        YEARS
                    -----------------------------------------------------------
   TIME STEP LENGTH  253.45      4.2242     7.04041E-02 2.93351E-03 8.03150E-06
 STRESS PERIOD TIME  535.07      8.9179     0.14863     6.19296E-03 1.69554E-05
         TOTAL TIME  535.07      8.9179     0.14863     6.19296E-03 1.69554E-05
1
 
 SOLVING FOR HEAD 

 OUTPUT CONTROL FOR STRESS PERIOD    1   TIME STEP    4
    SAVE HEAD FOR ALL LAYERS
    SAVE DRAWDOWN FOR ALL LAYERS
    SAVE BUDGET
    PRINT HEAD FOR ALL LAYERS
    PRINT BUDGET
 UBDSV1 SAVING "         STORAGE" ON UNIT  53 AT TIME STEP  4, STRESS PERIOD   1
 UBDSV2 SAVING "   CONSTANT HEAD" ON UNIT  53 AT TIME STEP  4, STRESS PERIOD   1
 UBDSV1 SAVING "FLOW RIGHT FACE " ON UNIT  53 AT TIME STEP  4, STRESS PERIOD   1
 UBDSV1 SAVING "FLOW FRONT FACE " ON UNIT  53 AT TIME STEP  4, STRESS PERIOD   1
1
              HEAD IN LAYER   1 AT END OF TIME STEP   4 IN STRESS PERIOD    1
  ---------------------------------------------------------------------------

            1           2           3           4           5           6           7           8           9          10
           11          12          13          14          15          16          17          18          19          20
           21          22          23          24          25          26          27          28          29          30
           31          32          33
 ........................................................................................................................
   1   -99.00      -99.00      -99.00      -99.00      -99.00      -99.00      -99.00      -99.00      -99.00      -99.00    
       -99.00      -99.00      100.00       99.99       99.99      100.00      100.00      100.00      100.00      100.00    
        100.0       100.0       100.0       100.0       100.0       100.0       100.0       100.0       100.0       100.0    
        100.0       100.0      -99.00    
   2   -99.00      -99.00       100.0       100.0       100.0       100.0       100.0       100.0       100.0      100.00    
        99.64       99.63       99.63       99.63       99.53       99.99      100.00       100.0       100.0       100.0    
        100.0       100.0       100.0       100.0       100.0       100.0       100.0       100.0       100.0       100.0    
        100.0       100.0       100.0    
   3   -99.00       100.0       100.0       100.0       100.0       100.0       100.0       100.0      100.00       99.64    
        65.72       65.37       65.36       65.37       66.18       99.30       99.99       100.0       100.0       100.0    
        100.0       100.0       100.0       100.0       100.0       100.0       100.0       100.0       100.0       100.0    
        100.0       100.0       100.0    
   4    100.0       100.0       100.0       100.0       100.0       100.0       100.0       100.0      100.00       99.63    
        65.37       65.00       64.52       65.00       65.72       99.29       99.99       100.0       100.0       100.0    
        100.0       100.0       100.0       100.0       100.0       100.0       100.0       100.0       100.0       100.0    
        100.0       100.0       100.0    
   5    100.0       100.0       100.0       100.0       100.0       100.0       100.0       100.0      100.00       99.63    
        65.36       64.68       41.83       64.53       65.71       99.29       99.99       100.0       100.0       100.0    
        100.0       100.0       100.0       100.0       100.0       100.0       100.0       100.0       100.0       100.0    
        100.0       100.0       100.0    
   6    100.0       100.0       100.0       100.0       100.0       100.0       100.0       100.0       99.99       99.63    
        65.36       64.99       64.52       65.00       65.71       99.09       99.99      100.00       100.0       100.0    
        100.0       100.0       100.0       100.0       100.0       100.0       100.0       100.0       100.0       100.0    
        100.0       100.0       100.0    
   7    100.0       100.0       100.0       100.0      100.00       100.0       100.0       100.0       99.99       99.52    
        65.48       65.01       64.99       65.01       65.71       99.29       99.99       100.0       100.0       100.0    
        100.0       100.0       100.0       100.0       100.0       100.0       100.0       100.0       100.0       100.0    
        100.0      -99.00      -99.00    
   8    100.0       100.0       100.0      100.00       99.90      100.00       100.0       100.0       99.99       99.29    
        65.71       65.01       64.99       65.01       65.71       99.29       99.99       100.0       100.0       100.0    
        100.0       100.0       100.0       100.0       100.0       100.0       100.0       100.0      -99.00      -99.00    
       -99.00      -99.00      -99.00    
   9    100.0       100.0       100.0       100.0      100.00       100.0       100.0       100.0       99.99       99.29    
        65.71       65.00       64.52       65.00       65.71       99.29       99.99       100.0      100.00       100.0    
        100.0       100.0       100.0       100.0       100.0       100.0       100.0      -99.00      -99.00      -99.00    
       -99.00      -99.00      -99.00    
  10    100.0       100.0       100.0       100.0       100.0       100.0       100.0       100.0       99.99       99.29    
        65.71       64.53       41.98       64.53       65.71       99.29       99.99      100.00       99.95      100.00    
        100.0       100.0       100.0       100.0       100.0       100.0       100.0      -99.00      -99.00      -99.00    
       -99.00      -99.00      -99.00    
  11    100.0       100.0       100.0       100.0       100.0       100.0       100.0       100.0       99.99       99.29    
        65.72       65.01       64.53       65.01       65.72       99.29       99.99       100.0      100.00       100.0    
        100.0       100.0       100.0       100.0       100.0       100.0       100.0      -99.00      -99.00      -99.00    
       -99.00      -99.00      -99.00    
  12    100.0       100.0       100.0       100.0       100.0       100.0       100.0       100.0       99.99       99.31    
        66.41       65.72       65.71       65.72       66.41       99.31       99.99       100.0       100.0       100.0    
        100.0       100.0       100.0       100.0       100.0       100.0       100.0      -99.00      -99.00      -99.00    
       -99.00      -99.00      -99.00    
  13    100.0       100.0       100.0       100.0       100.0       100.0       100.0       100.0      100.00       99.98    
        99.31       99.29       99.28       99.28       99.31       99.98      100.00       100.0       100.0       100.0    
        100.0       100.0       100.0       100.0       100.0       100.0       100.0      -99.00      -99.00      -99.00    
       -99.00      -99.00      -99.00    
  14    100.0       100.0       100.0       100.0       100.0       100.0       100.0       100.0       100.0      100.00    
        99.99       99.99       99.99       99.99       99.99      100.00       100.0       100.0       100.0       100.0    
        100.0       100.0       100.0       100.0       100.0       100.0       100.0      -99.00      -99.00      -99.00    
       -99.00      -99.00      -99.00    
  15   -99.00       100.0       100.0       100.0       100.0       100.0       100.0       100.0       100.0       100.0    
        100.0       100.0      100.00      100.00      100.00       100.0       100.0       100.0       100.0       100.0    
        100.0       100.0       100.0       100.0       100.0       100.0       100.0      -99.00      -99.00      -99.00    
       -99.00      -99.00      -99.00    
  16   -99.00       100.0       100.0       100.0       100.0       100.0       100.0       100.0       100.0       100.0    
        100.0       100.0      100.00      100.00       100.0       100.0       100.0       100.0       100.0       100.0    
        100.0       100.0       100.0       100.0       100.0       100.0      -99.00      -99.00      -99.00      -99.00    
       -99.00      -99.00      -99.00    
  17   -99.00       100.0       100.0       100.0       100.0       100.0       100.0       100.0       100.0      100.00    
       100.00      100.00      100.00       100.0       100.0       100.0       100.0       100.0       100.0       100.0    
        100.0       100.0       100.0       100.0       100.0      -99.00      -99.00      -99.00      -99.00      -99.00    
       -99.00      -99.00      -99.00    
  18   -99.00      -99.00       100.0       100.0       100.0       100.0       100.0      100.00      100.00      100.00    
        100.0       100.0       100.0       100.0       100.0       100.0       100.0       100.0       100.0       100.0    
        100.0       100.0       100.0      -99.00      -99.00      -99.00      -99.00      -99.00      -99.00      -99.00    
       -99.00      -99.00      -99.00    
  19   -99.00      -99.00      -99.00      -99.00       100.0       99.99       99.99       99.99       100.0       100.0    
        100.0       100.0      -99.00      -99.00      -99.00      -99.00      -99.00      -99.00      -99.00      -99.00    
       -99.00      -99.00      -99.00      -99.00      -99.00      -99.00      -99.00      -99.00      -99.00      -99.00    
       -99.00      -99.00      -99.00    

 HEAD WILL BE SAVED ON UNIT   51 AT END OF TIME STEP    4, STRESS PERIOD    1

 DRAWDOWN WILL BE SAVED ON UNIT   52 AT END OF TIME STEP    4, STRESS PERIOD    1
1
  VOLUMETRIC BUDGET FOR ENTIRE MODEL AT END OF TIME STEP    4, STRESS PERIOD   1
  ------------------------------------------------------------------------------

     CUMULATIVE VOLUMES      L**3       RATES FOR THIS TIME STEP      L**3/T
     ------------------                 ------------------------

           IN:                                      IN:
           ---                                      ---
             STORAGE =       22424.6602               STORAGE =     2070896.2500
       CONSTANT HEAD =           0.0000         CONSTANT HEAD =           0.0000
               WELLS =           0.0000                 WELLS =           0.0000
       RIVER LEAKAGE =           6.6208         RIVER LEAKAGE =         625.0000
            RECHARGE =          52.1186              RECHARGE =        4920.0000

            TOTAL IN =       22483.4004              TOTAL IN =     2076441.2500

          OUT:                                     OUT:
          ----                                     ----
             STORAGE =       21968.7246               STORAGE =     2028180.2500
       CONSTANT HEAD =       7.1166E-03         CONSTANT HEAD =           1.0880
               WELLS =         370.7626                 WELLS =       35000.0000
       RIVER LEAKAGE =         142.7939         RIVER LEAKAGE =       13388.6523
            RECHARGE =           0.0000              RECHARGE =           0.0000

           TOTAL OUT =       22482.2871             TOTAL OUT =     2076570.0000

            IN - OUT =           1.1133              IN - OUT =        -128.7500

 PERCENT DISCREPANCY =           0.00     PERCENT DISCREPANCY =          -0.01






         TIME SUMMARY AT END OF TIME STEP    4 IN STRESS PERIOD    1
                    SECONDS     MINUTES      HOURS       DAYS        YEARS
                    -----------------------------------------------------------
   TIME STEP LENGTH  380.18      6.3364     0.10561     4.40026E-03 1.20473E-05
 STRESS PERIOD TIME  915.25      15.254     0.25424     1.05932E-02 2.90026E-05
         TOTAL TIME  915.25      15.254     0.25424     1.05932E-02 2.90026E-05
1
 
 SOLVING FOR HEAD 

 OUTPUT CONTROL FOR STRESS PERIOD    1   TIME STEP    5
    SAVE HEAD FOR ALL LAYERS
    SAVE DRAWDOWN FOR ALL LAYERS
    SAVE BUDGET
    PRINT HEAD FOR ALL LAYERS
    PRINT BUDGET
 UBDSV1 SAVING "         STORAGE" ON UNIT  53 AT TIME STEP  5, STRESS PERIOD   1
 UBDSV2 SAVING "   CONSTANT HEAD" ON UNIT  53 AT TIME STEP  5, STRESS PERIOD   1
 UBDSV1 SAVING "FLOW RIGHT FACE " ON UNIT  53 AT TIME STEP  5, STRESS PERIOD   1
 UBDSV1 SAVING "FLOW FRONT FACE " ON UNIT  53 AT TIME STEP  5, STRESS PERIOD   1
1
              HEAD IN LAYER   1 AT END OF TIME STEP   5 IN STRESS PERIOD    1
  ---------------------------------------------------------------------------

            1           2           3           4           5           6           7           8           9          10
           11          12          13          14          15          16          17          18          19          20
           21          22          23          24          25          26          27          28          29          30
           31          32          33
 ........................................................................................................................
   1   -99.00      -99.00      -99.00      -99.00      -99.00      -99.00      -99.00      -99.00      -99.00      -99.00    
       -99.00      -99.00       99.99       99.99       99.99      100.00      100.00      100.00      100.00      100.00    
        100.0       100.0       100.0       100.0       100.0       100.0       100.0       100.0       100.0       100.0    
        100.0       100.0      -99.00    
   2   -99.00      -99.00       100.0       100.0       100.0       100.0       100.0       100.0       100.0       99.99    
        99.42       99.41       99.41       99.41       99.26       99.97      100.00       100.0       100.0       100.0    
        100.0       100.0       100.0       100.0       100.0       100.0       100.0       100.0       100.0       100.0    
        100.0       100.0       100.0    
   3   -99.00       100.0       100.0       100.0       100.0       100.0       100.0       100.0       99.99       99.43    
        66.16       65.59       65.57       65.60       66.87       98.91       99.98      100.00       100.0       100.0    
        100.0       100.0       100.0       100.0       100.0       100.0       100.0       100.0       100.0       100.0    
        100.0       100.0       100.0    
   4    100.0       100.0       100.0       100.0       100.0       100.0       100.0       100.0       99.99       99.41    
        65.59       65.00       64.27       65.00       66.14       98.87       99.98      100.00       100.0       100.0    
        100.0       100.0       100.0       100.0       100.0       100.0       100.0       100.0       100.0       100.0    
        100.0       100.0       100.0    
   5    100.0       100.0       100.0       100.0       100.0       100.0       100.0       100.0       99.99       99.41    
        65.58       64.50       42.86       64.29       66.11       98.86       99.98      100.00       100.0       100.0    
        100.0       100.0       100.0       100.0       100.0       100.0       100.0       100.0       100.0       100.0    
        100.0       100.0       100.0    
   6    100.0       100.0       100.0       100.0       100.0       100.0       100.0       100.0       99.99       99.41    
        65.58       64.99       64.27       64.99       66.12       98.55       99.97      100.00       100.0       100.0    
        100.0       100.0       100.0       100.0       100.0       100.0       100.0       100.0       100.0       100.0    
        100.0       100.0       100.0    
   7    100.0       100.0       100.0       100.0      100.00       100.0       100.0       100.0       99.99       99.23    
        65.77       65.02       64.99       65.02       66.13       98.86       99.98      100.00       100.0       100.0    
        100.0       100.0       100.0       100.0       100.0       100.0       100.0       100.0       100.0       100.0    
        100.0      -99.00      -99.00    
   8    100.0       100.0       100.0      100.00       99.84      100.00       100.0      100.00       99.97       98.88    
        66.12       65.02       64.99       65.02       66.13       98.87       99.98      100.00       100.0       100.0    
        100.0       100.0       100.0       100.0       100.0       100.0       100.0       100.0      -99.00      -99.00    
       -99.00      -99.00      -99.00    
   9    100.0       100.0       100.0       100.0      100.00       100.0       100.0      100.00       99.97       98.87    
        66.13       64.99       64.27       64.99       66.13       98.87       99.98      100.00      100.00       100.0    
        100.0       100.0       100.0       100.0       100.0       100.0       100.0      -99.00      -99.00      -99.00    
       -99.00      -99.00      -99.00    
  10    100.0       100.0       100.0       100.0       100.0       100.0       100.0      100.00       99.97       98.87    
        66.11       64.30       43.10       64.30       66.12       98.87       99.98      100.00       99.92      100.00    
        100.0       100.0       100.0       100.0       100.0       100.0       100.0      -99.00      -99.00      -99.00    
       -99.00      -99.00      -99.00    
  11    100.0       100.0       100.0       100.0       100.0       100.0       100.0      100.00       99.98       98.87    
        66.15       65.02       64.30       65.02       66.15       98.87       99.98      100.00      100.00       100.0    
        100.0       100.0       100.0       100.0       100.0       100.0       100.0      -99.00      -99.00      -99.00    
       -99.00      -99.00      -99.00    
  12    100.0       100.0       100.0       100.0       100.0       100.0       100.0      100.00       99.98       98.92    
        67.22       66.15       66.12       66.15       67.21       98.92       99.98      100.00       100.0       100.0    
        100.0       100.0       100.0       100.0       100.0       100.0       100.0      -99.00      -99.00      -99.00    
       -99.00      -99.00      -99.00    
  13    100.0       100.0       100.0       100.0       100.0       100.0       100.0       100.0      100.00       99.96    
        98.92       98.87       98.86       98.87       98.92       99.96      100.00       100.0       100.0       100.0    
        100.0       100.0       100.0       100.0       100.0       100.0       100.0      -99.00      -99.00      -99.00    
       -99.00      -99.00      -99.00    
  14    100.0       100.0       100.0       100.0       100.0       100.0       100.0       100.0       100.0      100.00    
        99.98       99.98       99.98       99.97       99.97      100.00       100.0       100.0       100.0       100.0    
        100.0       100.0       100.0       100.0       100.0       100.0       100.0      -99.00      -99.00      -99.00    
       -99.00      -99.00      -99.00    
  15   -99.00       100.0       100.0       100.0       100.0       100.0       100.0       100.0       100.0       100.0    
       100.00      100.00      100.00       99.99       99.99       100.0       100.0       100.0       100.0       100.0    
        100.0       100.0       100.0       100.0       100.0       100.0       100.0      -99.00      -99.00      -99.00    
       -99.00      -99.00      -99.00    
  16   -99.00       100.0       100.0       100.0       100.0       100.0       100.0       100.0       100.0       100.0    
        100.0      100.00       99.99       99.99      100.00       100.0       100.0       100.0       100.0       100.0    
        100.0       100.0       100.0       100.0       100.0       100.0      -99.00      -99.00      -99.00      -99.00    
       -99.00      -99.00      -99.00    
  17   -99.00       100.0       100.0       100.0       100.0       100.0       100.0       100.0      100.00       99.99    
        99.99       99.99       99.99      100.00       100.0       100.0       100.0       100.0       100.0       100.0    
        100.0       100.0       100.0       100.0       100.0      -99.00      -99.00      -99.00      -99.00      -99.00    
       -99.00      -99.00      -99.00    
  18   -99.00      -99.00       100.0       100.0       100.0       100.0      100.00       99.99       99.99       99.99    
       100.00       100.0       100.0       100.0       100.0       100.0       100.0       100.0       100.0       100.0    
        100.0       100.0       100.0      -99.00      -99.00      -99.00      -99.00      -99.00      -99.00      -99.00    
       -99.00      -99.00      -99.00    
  19   -99.00      -99.00      -99.00      -99.00       100.0       99.99       99.99       99.99      100.00       100.0    
        100.0       100.0      -99.00      -99.00      -99.00      -99.00      -99.00      -99.00      -99.00      -99.00    
       -99.00      -99.00      -99.00      -99.00      -99.00      -99.00      -99.00      -99.00      -99.00      -99.00    
       -99.00      -99.00      -99.00    

 HEAD WILL BE SAVED ON UNIT   51 AT END OF TIME STEP    5, STRESS PERIOD    1

 DRAWDOWN WILL BE SAVED ON UNIT   52 AT END OF TIME STEP    5, STRESS PERIOD    1
1
  VOLUMETRIC BUDGET FOR ENTIRE MODEL AT END OF TIME STEP    5, STRESS PERIOD   1
  ------------------------------------------------------------------------------

     CUMULATIVE VOLUMES      L**3       RATES FOR THIS TIME STEP      L**3/T
     ------------------                 ------------------------

           IN:                                      IN:
           ---                                      ---
             STORAGE =       35589.8203               STORAGE =     1994603.6250
       CONSTANT HEAD =           0.0000         CONSTANT HEAD =           0.0000
               WELLS =           0.0000                 WELLS =           0.0000
       RIVER LEAKAGE =          10.7460         RIVER LEAKAGE =         625.0000
            RECHARGE =          84.5925              RECHARGE =        4920.0000

            TOTAL IN =       35685.1602              TOTAL IN =     2000148.6250

          OUT:                                     OUT:
          ----                                     ----
             STORAGE =       34850.7891               STORAGE =     1951712.7500
       CONSTANT HEAD =       1.8810E-02         CONSTANT HEAD =           1.7717
               WELLS =         601.7762                 WELLS =       35000.0000
       RIVER LEAKAGE =         230.1209         RIVER LEAKAGE =       13230.5781
            RECHARGE =           0.0000              RECHARGE =           0.0000

           TOTAL OUT =       35682.7070             TOTAL OUT =     1999945.1250

            IN - OUT =           2.4531              IN - OUT =         203.5000

 PERCENT DISCREPANCY =           0.01     PERCENT DISCREPANCY =           0.01






         TIME SUMMARY AT END OF TIME STEP    5 IN STRESS PERIOD    1
                    SECONDS     MINUTES      HOURS       DAYS        YEARS
                    -----------------------------------------------------------
   TIME STEP LENGTH  570.27      9.5046     0.15841     6.60039E-03 1.80709E-05
 STRESS PERIOD TIME  1485.5      24.759     0.41265     1.71936E-02 4.70735E-05
         TOTAL TIME  1485.5      24.759     0.41265     1.71936E-02 4.70735E-05
1
 
 SOLVING FOR HEAD 

 OUTPUT CONTROL FOR STRESS PERIOD    1   TIME STEP    6
    SAVE HEAD FOR ALL LAYERS
    SAVE DRAWDOWN FOR ALL LAYERS
    SAVE BUDGET
    PRINT HEAD FOR ALL LAYERS
    PRINT BUDGET
 UBDSV1 SAVING "         STORAGE" ON UNIT  53 AT TIME STEP  6, STRESS PERIOD   1
 UBDSV2 SAVING "   CONSTANT HEAD" ON UNIT  53 AT TIME STEP  6, STRESS PERIOD   1
 UBDSV1 SAVING "FLOW RIGHT FACE " ON UNIT  53 AT TIME STEP  6, STRESS PERIOD   1
 UBDSV1 SAVING "FLOW FRONT FACE " ON UNIT  53 AT TIME STEP  6, STRESS PERIOD   1
1
              HEAD IN LAYER   1 AT END OF TIME STEP   6 IN STRESS PERIOD    1
  ---------------------------------------------------------------------------

            1           2           3           4           5           6           7           8           9          10
           11          12          13          14          15          16          17          18          19          20
           21          22          23          24          25          26          27          28          29          30
           31          32          33
 ........................................................................................................................
   1   -99.00      -99.00      -99.00      -99.00      -99.00      -99.00      -99.00      -99.00      -99.00      -99.00    
       -99.00      -99.00       99.98       99.98       99.97       99.99       99.99       99.99       99.99       99.99    
        100.0       100.0       100.0       100.0       100.0       100.0       100.0       100.0       100.0       100.0    
        100.0       100.0      -99.00    
   2   -99.00      -99.00       100.0       100.0       100.0       100.0       100.0       100.0      100.00       99.97    
        99.11       99.08       99.09       99.09       98.87       99.93      100.00      100.00       100.0       100.0    
        100.0       100.0       100.0       100.0       100.0       100.0       100.0       100.0       100.0       100.0    
        100.0       100.0       100.0    
   3   -99.00       100.0       100.0       100.0       100.0       100.0       100.0       100.0       99.99       99.13    
        66.78       65.92       65.87       65.94       67.84       98.36       99.95      100.00       100.0       100.0    
        100.0       100.0       100.0       100.0       100.0       100.0       100.0       100.0       100.0       100.0    
        100.0       100.0       100.0    
   4    100.0       100.0       100.0       100.0       100.0       100.0       100.0       100.0       99.99       99.09    
        65.92       64.99       63.94       65.01       66.75       98.28       99.94      100.00       100.0       100.0    
        100.0       100.0       100.0       100.0       100.0       100.0       100.0       100.0       100.0       100.0    
        100.0       100.0       100.0    
   5    100.0       100.0       100.0       100.0       100.0       100.0       100.0       100.0       99.99       99.09    
        65.89       64.27       44.30       63.99       66.69       98.26       99.94      100.00       100.0       100.0    
        100.0       100.0       100.0       100.0       100.0       100.0       100.0       100.0       100.0       100.0    
        100.0       100.0       100.0    
   6    100.0       100.0       100.0       100.0       100.0       100.0       100.0      100.00       99.98       99.09    
        65.90       64.97       63.94       64.99       66.70       97.80       99.93      100.00       100.0       100.0    
        100.0       100.0       100.0       100.0       100.0       100.0       100.0       100.0       100.0       100.0    
        100.0       100.0       100.0    
   7    100.0       100.0       100.0       100.0      100.00       100.0       100.0      100.00       99.97       98.80    
        66.18       65.04       64.97       65.05       66.72       98.26       99.94      100.00       100.0       100.0    
        100.0       100.0       100.0       100.0       100.0       100.0       100.0       100.0       100.0       100.0    
        100.0      -99.00      -99.00    
   8    100.0       100.0       100.0      100.00       99.75      100.00       100.0      100.00       99.94       98.29    
        66.71       65.05       64.97       65.05       66.72       98.28       99.94      100.00       100.0       100.0    
        100.0       100.0       100.0       100.0       100.0       100.0       100.0       100.0      -99.00      -99.00    
       -99.00      -99.00      -99.00    
   9    100.0       100.0       100.0       100.0      100.00       100.0       100.0      100.00       99.94       98.28    
        66.72       64.99       63.95       64.99       66.72       98.28       99.94      100.00      100.00       100.0    
        100.0       100.0       100.0       100.0       100.0       100.0       100.0      -99.00      -99.00      -99.00    
       -99.00      -99.00      -99.00    
  10    100.0       100.0       100.0       100.0       100.0       100.0       100.0      100.00       99.94       98.27    
        66.69       64.01       44.63       64.01       66.69       98.28       99.94      100.00       99.88      100.00    
        100.0       100.0       100.0       100.0       100.0       100.0       100.0      -99.00      -99.00      -99.00    
       -99.00      -99.00      -99.00    
  11    100.0       100.0       100.0       100.0       100.0       100.0       100.0      100.00       99.94       98.28    
        66.77       65.05       64.01       65.04       66.77       98.28       99.94      100.00      100.00       100.0    
        100.0       100.0       100.0       100.0       100.0       100.0       100.0      -99.00      -99.00      -99.00    
       -99.00      -99.00      -99.00    
  12    100.0       100.0       100.0       100.0       100.0       100.0       100.0      100.00       99.95       98.38    
        68.34       66.77       66.69       66.77       68.34       98.38       99.95      100.00       100.0       100.0    
        100.0       100.0       100.0       100.0       100.0       100.0       100.0      -99.00      -99.00      -99.00    
       -99.00      -99.00      -99.00    
  13    100.0       100.0       100.0       100.0       100.0       100.0       100.0       100.0      100.00       99.90    
        98.38       98.28       98.27       98.27       98.38       99.90      100.00       100.0       100.0       100.0    
        100.0       100.0       100.0       100.0       100.0       100.0       100.0      -99.00      -99.00      -99.00    
       -99.00      -99.00      -99.00    
  14    100.0       100.0       100.0       100.0       100.0       100.0       100.0       100.0       100.0      100.00    
        99.95       99.94       99.94       99.93       99.94      100.00       100.0       100.0       100.0       100.0    
        100.0       100.0       100.0       100.0       100.0       100.0       100.0      -99.00      -99.00      -99.00    
       -99.00      -99.00      -99.00    
  15   -99.00       100.0       100.0       100.0       100.0       100.0       100.0       100.0       100.0       100.0    
       100.00      100.00      100.00       99.99       99.99      100.00       100.0       100.0       100.0       100.0    
        100.0       100.0       100.0       100.0       100.0       100.0       100.0      -99.00      -99.00      -99.00    
       -99.00      -99.00      -99.00    
  16   -99.00       100.0       100.0       100.0       100.0       100.0       100.0       100.0       100.0      100.00    
       100.00      100.00       99.99       99.99      100.00       100.0       100.0       100.0       100.0       100.0    
        100.0       100.0       100.0       100.0       100.0       100.0      -99.00      -99.00      -99.00      -99.00    
       -99.00      -99.00      -99.00    
  17   -99.00       100.0       100.0       100.0       100.0       100.0       100.0      100.00      100.00       99.99    
        99.99       99.99       99.99      100.00       100.0       100.0       100.0       100.0       100.0       100.0    
        100.0       100.0       100.0       100.0       100.0      -99.00      -99.00      -99.00      -99.00      -99.00    
       -99.00      -99.00      -99.00    
  18   -99.00      -99.00       100.0       100.0       100.0      100.00      100.00       99.99       99.99       99.99    
       100.00      100.00      100.00       100.0       100.0       100.0       100.0       100.0       100.0       100.0    
        100.0       100.0       100.0      -99.00      -99.00      -99.00      -99.00      -99.00      -99.00      -99.00    
       -99.00      -99.00      -99.00    
  19   -99.00      -99.00      -99.00      -99.00      100.00       99.99       99.99       99.99      100.00      100.00    
        100.0       100.0      -99.00      -99.00      -99.00      -99.00      -99.00      -99.00      -99.00      -99.00    
       -99.00      -99.00      -99.00      -99.00      -99.00      -99.00      -99.00      -99.00      -99.00      -99.00    
       -99.00      -99.00      -99.00    

 HEAD WILL BE SAVED ON UNIT   51 AT END OF TIME STEP    6, STRESS PERIOD    1

 DRAWDOWN WILL BE SAVED ON UNIT   52 AT END OF TIME STEP    6, STRESS PERIOD    1
1
  VOLUMETRIC BUDGET FOR ENTIRE MODEL AT END OF TIME STEP    6, STRESS PERIOD   1
  ------------------------------------------------------------------------------

     CUMULATIVE VOLUMES      L**3       RATES FOR THIS TIME STEP      L**3/T
     ------------------                 ------------------------

           IN:                                      IN:
           ---                                      ---
             STORAGE =       54287.4766               STORAGE =     1888540.5000
       CONSTANT HEAD =           0.0000         CONSTANT HEAD =           0.0000
               WELLS =           0.0000                 WELLS =           0.0000
       RIVER LEAKAGE =          16.9339         RIVER LEAKAGE =         625.0000
            RECHARGE =         133.3034              RECHARGE =        4920.0000

            TOTAL IN =       54437.7148              TOTAL IN =     1894085.5000

          OUT:                                     OUT:
          ----                                     ----
             STORAGE =       53128.1094               STORAGE =     1846085.1250
       CONSTANT HEAD =       4.6336E-02         CONSTANT HEAD =           2.7802
               WELLS =         948.2966                 WELLS =       35000.0000
       RIVER LEAKAGE =         358.8290         RIVER LEAKAGE =       13000.0518
            RECHARGE =           0.0000              RECHARGE =           0.0000

           TOTAL OUT =       54435.2812             TOTAL OUT =     1894087.8750

            IN - OUT =           2.4336              IN - OUT =          -2.3750

 PERCENT DISCREPANCY =           0.00     PERCENT DISCREPANCY =          -0.00






         TIME SUMMARY AT END OF TIME STEP    6 IN STRESS PERIOD    1
                    SECONDS     MINUTES      HOURS       DAYS        YEARS
                    -----------------------------------------------------------
   TIME STEP LENGTH  855.41      14.257     0.23761     9.90058E-03 2.71063E-05
[...]
        85.72       87.43       89.16       90.88       92.54       94.08       95.48       96.67       97.62       98.29    
        98.78       99.16       99.30    
   6    80.95       80.87       80.71       80.51       80.43       80.78       81.24       81.67       82.00       82.16    
        82.12       81.97       81.71       81.25       80.31       77.99       80.65       81.92       82.70       84.02    
        85.95       87.81       89.63       91.42       93.14       94.78       96.28       97.57       98.58       99.09    
        99.47       100.0       100.0    
   7    80.93       80.79       80.49       80.00       79.48       80.29       81.07       81.68       82.10       82.26    
        82.26       82.14       81.93       81.58       81.07       80.54       81.36       82.16       82.80       84.16    
        86.20       88.17       90.09       91.96       93.80       95.59       97.26       98.71       100.0       100.0    
        100.0      -99.00      -99.00    
   8    81.02       80.84       80.41       79.48       77.15       79.79       81.04       81.82       82.28       82.42    
        82.44       82.38       82.25       82.06       81.84       81.74       82.07       82.53       83.00       84.35    
        86.48       88.53       90.54       92.51       94.48       96.46       98.44       100.0      -99.00      -99.00    
       -99.00      -99.00      -99.00    
   9    81.24       81.10       80.80       80.32       79.81       80.64       81.45       82.10       82.50       82.64    
        82.69       82.68       82.63       82.55       82.48       82.49       82.65       82.87       83.10       84.53    
        86.77       88.90       90.97       93.02       95.10       97.32       100.0      -99.00      -99.00      -99.00    
       -99.00      -99.00      -99.00    
  10    81.57       81.49       81.34       81.16       81.10       81.48       81.99       82.46       82.78       82.92    
        82.98       83.01       83.01       83.01       83.02       83.06       83.16       83.18       82.85       84.70    
        87.10       89.29       91.39       93.46       95.54       97.70       100.0      -99.00      -99.00      -99.00    
       -99.00      -99.00      -99.00    
  11    81.94       81.91       81.87       81.84       81.91       82.17       82.51       82.84       83.07       83.20    
        83.29       83.34       83.39       83.44       83.50       83.59       83.71       83.84       84.01       85.39    
        87.58       89.71       91.79       93.84       95.87       97.93       100.0      -99.00      -99.00      -99.00    
       -99.00      -99.00      -99.00    
  12    82.30       82.32       82.34       82.39       82.51       82.72       83.00       83.22       83.36       83.47    
        83.58       83.67       83.75       83.83       83.93       84.06       84.23       84.45       84.77       86.02    
        88.08       90.14       92.18       94.19       96.16       98.10       100.0      -99.00      -99.00      -99.00    
       -99.00      -99.00      -99.00    
  13    82.61       82.67       82.74       82.84       82.98       83.18       83.38       83.51       83.61       83.71    
        83.82       83.94       84.07       84.19       84.31       84.47       84.69       84.96       85.33       86.54    
        88.52       90.54       92.55       94.54       96.46       98.28       100.0      -99.00      -99.00      -99.00    
       -99.00      -99.00      -99.00    
  14    82.82       82.99       83.09       83.20       83.34       83.52       83.63       83.73       83.83       83.93    
        84.05       84.18       84.32       84.49       84.65       84.82       85.06       85.36       85.75       86.94    
        88.89       90.89       92.91       94.92       96.83       98.53       100.0      -99.00      -99.00      -99.00    
       -99.00      -99.00      -99.00    
  15   -99.00       83.33       83.40       83.50       83.64       83.77       83.84       83.92       84.02       84.13    
        84.25       84.38       84.54       84.72       84.90       85.09       85.35       85.67       86.06       87.24    
        89.17       91.16       93.23       95.37       97.38       98.98       100.0      -99.00      -99.00      -99.00    
       -99.00      -99.00      -99.00    
  16   -99.00       83.56       83.63       83.73       83.86       83.93       84.00       84.09       84.19       84.30    
        84.41       84.55       84.72       84.89       85.07       85.29       85.56       85.89       86.29       87.44    
        89.34       91.31       93.45       95.90       98.33       100.0      -99.00      -99.00      -99.00      -99.00    
       -99.00      -99.00      -99.00    
  17   -99.00       83.70       83.79       83.90       84.01       84.07       84.14       84.23       84.32       84.44    
        84.55       84.67       84.82       84.99       85.18       85.41       85.69       86.03       86.42       87.55    
        89.37       91.24       93.32       96.42       100.0      -99.00      -99.00      -99.00      -99.00      -99.00    
       -99.00      -99.00      -99.00    
  18   -99.00      -99.00       83.91       84.00       84.10       84.17       84.25       84.34       84.42       84.51    
        84.59       84.70       84.86       85.03       85.23       85.47       85.76       86.10       86.49       87.58    
        89.30       90.91       92.14      -99.00      -99.00      -99.00      -99.00      -99.00      -99.00      -99.00    
       -99.00      -99.00      -99.00    
  19   -99.00      -99.00      -99.00      -99.00       84.18       84.25       84.32       84.39       84.45       84.53    
        84.60       84.66      -99.00      -99.00      -99.00      -99.00      -99.00      -99.00      -99.00      -99.00    
       -99.00      -99.00      -99.00      -99.00      -99.00      -99.00      -99.00      -99.00      -99.00      -99.00    
       -99.00      -99.00      -99.00    

 HEAD WILL BE SAVED ON UNIT   51 AT END OF TIME STEP   29, STRESS PERIOD    1

 DRAWDOWN WILL BE SAVED ON UNIT   52 AT END OF TIME STEP   29, STRESS PERIOD    1
1
  VOLUMETRIC BUDGET FOR ENTIRE MODEL AT END OF TIME STEP   29, STRESS PERIOD   1
  ------------------------------------------------------------------------------

     CUMULATIVE VOLUMES      L**3       RATES FOR THIS TIME STEP      L**3/T
     ------------------                 ------------------------

           IN:                                      IN:
           ---                                      ---
             STORAGE =     6656265.5000               STORAGE =        9778.2520
       CONSTANT HEAD =     3850588.7500         CONSTANT HEAD =       15866.7490
               WELLS =           0.0000                 WELLS =           0.0000
       RIVER LEAKAGE =     1261793.1250         RIVER LEAKAGE =        4435.0000
            RECHARGE =     1639996.1250              RECHARGE =        4920.0000

            TOTAL IN =    13408643.0000              TOTAL IN =       35000.0000

          OUT:                                     OUT:
          ----                                     ----
             STORAGE =     1546527.7500               STORAGE =           0.0000
       CONSTANT HEAD =        1674.0431         CONSTANT HEAD =           0.0000
               WELLS =    11666639.0000                 WELLS =       35000.0000
       RIVER LEAKAGE =      193794.4844         RIVER LEAKAGE =           0.0000
            RECHARGE =           0.0000              RECHARGE =           0.0000

           TOTAL OUT =    13408635.0000             TOTAL OUT =       35000.0000

            IN - OUT =           8.0000              IN - OUT =           0.0000

 PERCENT DISCREPANCY =           0.00     PERCENT DISCREPANCY =           0.00






         TIME SUMMARY AT END OF TIME STEP   29 IN STRESS PERIOD    1
                    SECONDS     MINUTES      HOURS       DAYS        YEARS
                    -----------------------------------------------------------
   TIME STEP LENGTH 9.60005E+06 1.60001E+05  2666.7      111.11     0.30421    
 STRESS PERIOD TIME 2.87999E+07 4.79999E+05  8000.0      333.33     0.91261    
         TOTAL TIME 2.87999E+07 4.79999E+05  8000.0      333.33     0.91261    
1
 
 SOLVING FOR HEAD 

 OUTPUT CONTROL FOR STRESS PERIOD    1   TIME STEP   30
    SAVE HEAD FOR ALL LAYERS
    SAVE DRAWDOWN FOR ALL LAYERS
    SAVE BUDGET
    PRINT HEAD FOR ALL LAYERS
    PRINT BUDGET
 UBDSV1 SAVING "         STORAGE" ON UNIT  53 AT TIME STEP 30, STRESS PERIOD   1
 UBDSV2 SAVING "   CONSTANT HEAD" ON UNIT  53 AT TIME STEP 30, STRESS PERIOD   1
 UBDSV1 SAVING "FLOW RIGHT FACE " ON UNIT  53 AT TIME STEP 30, STRESS PERIOD   1
 UBDSV1 SAVING "FLOW FRONT FACE " ON UNIT  53 AT TIME STEP 30, STRESS PERIOD   1
1
              HEAD IN LAYER   1 AT END OF TIME STEP  30 IN STRESS PERIOD    1
  ---------------------------------------------------------------------------

            1           2           3           4           5           6           7           8           9          10
           11          12          13          14          15          16          17          18          19          20
           21          22          23          24          25          26          27          28          29          30
           31          32          33
 ........................................................................................................................
   1   -99.00      -99.00      -99.00      -99.00      -99.00      -99.00      -99.00      -99.00      -99.00      -99.00    
       -99.00      -99.00       79.68       79.80       79.97       80.20       80.53       80.99       81.58       82.25    
        82.95       83.66       85.25       87.51       89.51       91.26       92.78       94.08       95.15       95.99    
        96.59       96.94      -99.00    
   2   -99.00      -99.00       78.11       78.17       78.27       78.42       78.60       78.80       78.99       79.16    
        79.30       79.43       79.54       79.61       79.72       79.97       80.32       80.82       81.43       82.16    
        82.92       83.73       85.47       87.74       89.71       91.45       92.98       94.27       95.35       96.20    
        96.83       97.26       97.59    
   3   -99.00       77.97       78.03       78.09       78.20       78.36       78.56       78.77       78.98       79.16    
        79.29       79.33       79.29       79.28       79.33       79.55       79.95       80.50       81.16       82.02    
        82.82       84.16       86.18       88.21       90.11       91.83       93.36       94.67       95.75       96.59    
        97.22       97.66       97.90    
   4    77.86       77.89       77.90       77.94       78.04       78.23       78.47       78.73       78.97       79.17    
        79.25       79.19       79.07       78.95       78.87       78.92       79.43       80.07       80.69       81.78    
        83.23       84.94       86.84       88.78       90.65       92.37       93.92       95.26       96.35       97.18    
        97.79       98.22       98.43    
   5    77.80       77.78       77.73       77.70       77.77       78.01       78.34       78.68       78.97       79.18    
        79.21       79.12       78.94       78.68       78.26       77.83       78.75       79.65       80.37       81.67    
        83.56       85.47       87.43       89.38       91.28       93.06       94.68       96.07       97.18       97.96    
        98.53       98.98       99.14    
   6    77.74       77.67       77.52       77.34       77.29       77.67       78.17       78.64       79.03       79.24    
        79.27       79.17       78.96       78.54       77.65       75.38       78.09       79.41       80.24       81.69    
        83.83       85.91       87.97       90.01       91.99       93.89       95.63       97.13       98.31       98.91    
        99.37       100.0       100.0    
   7    77.73       77.59       77.30       76.83       76.34       77.19       78.01       78.66       79.14       79.35    
        79.40       79.33       79.16       78.87       78.41       77.93       78.80       79.65       80.35       81.84    
        84.12       86.33       88.50       90.65       92.76       94.83       96.78       98.48       100.0       100.0    
        100.0      -99.00      -99.00    
   8    77.82       77.65       77.23       76.32       74.02       76.70       77.99       78.83       79.34       79.52    
        79.58       79.57       79.49       79.34       79.17       79.12       79.51       80.02       80.55       82.05    
        84.42       86.74       89.02       91.28       93.55       95.86       98.17       100.0      -99.00      -99.00    
       -99.00      -99.00      -99.00    
   9    78.05       77.92       77.63       77.17       76.69       77.56       78.41       79.11       79.56       79.73    
        79.83       79.86       79.86       79.82       79.81       79.87       80.09       80.37       80.66       82.24    
        84.74       87.15       89.52       91.87       94.28       96.87       100.0      -99.00      -99.00      -99.00    
       -99.00      -99.00      -99.00    
  10    78.39       78.31       78.18       78.02       77.99       78.41       78.95       79.48       79.84       80.02    
        80.12       80.19       80.24       80.28       80.34       80.45       80.60       80.68       80.41       82.43    
        85.10       87.58       89.98       92.37       94.79       97.31       100.0      -99.00      -99.00      -99.00    
       -99.00      -99.00      -99.00    
  11    78.76       78.74       78.71       78.71       78.81       79.10       79.48       79.86       80.13       80.30    
        80.43       80.52       80.62       80.71       80.82       80.97       81.15       81.35       81.58       83.13    
        85.61       88.04       90.43       92.80       95.17       97.57       100.0      -99.00      -99.00      -99.00    
       -99.00      -99.00      -99.00    
  12    79.13       79.15       79.19       79.27       79.41       79.66       79.98       80.25       80.42       80.56    
        80.71       80.84       80.98       81.11       81.26       81.44       81.68       81.96       82.34       83.77    
        86.13       88.49       90.85       93.19       95.50       97.77       100.0      -99.00      -99.00      -99.00    
       -99.00      -99.00      -99.00    
  13    79.45       79.52       79.61       79.72       79.89       80.13       80.37       80.54       80.66       80.81    
        80.96       81.11       81.29       81.47       81.64       81.86       82.13       82.47       82.91       84.30    
        86.59       88.92       91.26       93.58       95.84       97.97       100.0      -99.00      -99.00      -99.00    
       -99.00      -99.00      -99.00    
  14    79.66       79.84       79.97       80.10       80.27       80.48       80.62       80.75       80.88       81.03    
        81.18       81.35       81.54       81.76       81.98       82.21       82.51       82.88       83.33       84.71    
        86.98       89.29       91.66       94.02       96.26       98.26       100.0      -99.00      -99.00      -99.00    
       -99.00      -99.00      -99.00    
  15   -99.00       80.20       80.28       80.41       80.57       80.74       80.83       80.95       81.07       81.22    
        81.38       81.56       81.76       81.99       82.23       82.48       82.80       83.19       83.65       85.02    
        87.26       89.59       92.02       94.53       96.91       98.80       100.0      -99.00      -99.00      -99.00    
       -99.00      -99.00      -99.00    
  16   -99.00       80.45       80.53       80.65       80.80       80.91       81.00       81.11       81.24       81.38    
        81.54       81.72       81.94       82.16       82.39       82.67       83.01       83.41       83.87       85.22    
        87.43       89.74       92.26       95.15       98.02       100.0      -99.00      -99.00      -99.00      -99.00    
       -99.00      -99.00      -99.00    
  17   -99.00       80.59       80.70       80.83       80.96       81.04       81.14       81.25       81.37       81.52    
        81.67       81.83       82.04       82.25       82.50       82.80       83.14       83.55       84.01       85.32    
        87.45       89.64       92.09       95.76       100.0      -99.00      -99.00      -99.00      -99.00      -99.00    
       -99.00      -99.00      -99.00    
  18   -99.00      -99.00       80.83       80.93       81.06       81.15       81.24       81.36       81.47       81.59    
        81.71       81.85       82.07       82.30       82.56       82.86       83.21       83.61       84.07       85.35    
        87.36       89.24       90.69      -99.00      -99.00      -99.00      -99.00      -99.00      -99.00      -99.00    
       -99.00      -99.00      -99.00    
  19   -99.00      -99.00      -99.00      -99.00       81.15       81.23       81.32       81.41       81.50       81.60    
        81.70       81.78      -99.00      -99.00      -99.00      -99.00      -99.00      -99.00      -99.00      -99.00    
       -99.00      -99.00      -99.00      -99.00      -99.00      -99.00      -99.00      -99.00      -99.00      -99.00    
       -99.00      -99.00      -99.00    

 HEAD WILL BE SAVED ON UNIT   51 AT END OF TIME STEP   30, STRESS PERIOD    1

 DRAWDOWN WILL BE SAVED ON UNIT   52 AT END OF TIME STEP   30, STRESS PERIOD    1
1
  VOLUMETRIC BUDGET FOR ENTIRE MODEL AT END OF TIME STEP   30, STRESS PERIOD   1
  ------------------------------------------------------------------------------

     CUMULATIVE VOLUMES      L**3       RATES FOR THIS TIME STEP      L**3/T
     ------------------                 ------------------------

           IN:                                      IN:
           ---                                      ---
             STORAGE =     7808012.0000               STORAGE =        6910.4419
       CONSTANT HEAD =     6973032.0000         CONSTANT HEAD =       18734.5586
               WELLS =           0.0000                 WELLS =           0.0000
       RIVER LEAKAGE =     2000963.7500         RIVER LEAKAGE =        4435.0000
            RECHARGE =     2460000.5000              RECHARGE =        4920.0000

            TOTAL IN =    19242008.0000              TOTAL IN =       35000.0000

          OUT:                                     OUT:
          ----                                     ----
             STORAGE =     1546527.7500               STORAGE =           0.0000
       CONSTANT HEAD =        1674.0431         CONSTANT HEAD =           0.0000
               WELLS =    17500004.0000                 WELLS =       35000.0000
       RIVER LEAKAGE =      193794.4844         RIVER LEAKAGE =           0.0000
            RECHARGE =           0.0000              RECHARGE =           0.0000

           TOTAL OUT =    19242000.0000             TOTAL OUT =       35000.0000

            IN - OUT =           8.0000              IN - OUT =           0.0000

 PERCENT DISCREPANCY =           0.00     PERCENT DISCREPANCY =           0.00






         TIME SUMMARY AT END OF TIME STEP   30 IN STRESS PERIOD    1
                    SECONDS     MINUTES      HOURS       DAYS        YEARS
                    -----------------------------------------------------------
   TIME STEP LENGTH 1.44001E+07 2.40001E+05  4000.0      166.67     0.45631    
 STRESS PERIOD TIME 4.32000E+07 7.20000E+05  12000.      500.00      1.3689    
         TOTAL TIME 4.32000E+07 7.20000E+05  12000.      500.00      1.3689    
1

 Run end date and time (yyyy/mm/dd hh:mm:ss): 2025/03/18 10:50:32
 Elapsed run time:  0.031 Seconds

