                                  MODFLOW-2005     
      U.S. GEOLOGICAL SURVEY MODULAR FINITE-DIFFERENCE GROUND-WATER FLOW MODEL
                            VERSION 1.12.00 2/3/2017

 LIST FILE: UncPlanPaper.list
                         UNIT    2

 OPENING UncPlanPaper.dis
 FILE TYPE:DIS   UNIT   11   STATUS:OLD    
 FORMAT:FORMATTED              ACCESS:SEQUENTIAL          

 OPENING UncPlanPaper.bas
 FILE TYPE:BAS6   UNIT   13   STATUS:OLD    
 FORMAT:FORMATTED              ACCESS:SEQUENTIAL          

 OPENING UncPlanPaper.lpf
 FILE TYPE:LPF   UNIT   15   STATUS:OLD    
 FORMAT:FORMATTED              ACCESS:SEQUENTIAL          

 OPENING UncPlanPaper.wel
 FILE TYPE:WEL   UNIT   20   STATUS:OLD    
 FORMAT:FORMATTED              ACCESS:SEQUENTIAL          

 OPENING UncPlanPaper.riv
 FILE TYPE:RIV   UNIT   18   STATUS:OLD    
 FORMAT:FORMATTED              ACCESS:SEQUENTIAL          

 OPENING UncPlanPaper.rch
 FILE TYPE:RCH   UNIT   19   STATUS:OLD    
 FORMAT:FORMATTED              ACCESS:SEQUENTIAL          

 OPENING UncPlanPaper.oc
 FILE TYPE:OC   UNIT   14   STATUS:OLD    
 FORMAT:FORMATTED              ACCESS:SEQUENTIAL          

 OPENING UncPlanPaper.pcg
 FILE TYPE:PCG   UNIT   27   STATUS:OLD    
 FORMAT:FORMATTED              ACCESS:SEQUENTIAL          

 OPENING UncPlanPaper.cbc
 FILE TYPE:DATA(BINARY)   UNIT   53   STATUS:REPLACE
 FORMAT:UNFORMATTED            ACCESS:STREAM              

 OPENING UncPlanPaper.hds
 FILE TYPE:DATA(BINARY)   UNIT   51   STATUS:REPLACE
 FORMAT:UNFORMATTED            ACCESS:STREAM              

 OPENING UncPlanPaper.ddn
 FILE TYPE:DATA(BINARY)   UNIT   52   STATUS:REPLACE
 FORMAT:UNFORMATTED            ACCESS:STREAM              

 BAS -- BASIC PACKAGE, VERSION 7, 5/2/2005 INPUT READ FROM UNIT   13

 MODFLOW was compiled using mixed precision
 Precision of REAL variables:           6
 Precision of DOUBLE PRECISION variables:          15

 DISCRETIZATION INPUT DATA READ FROM UNIT   11
 # DIS package for MODFLOW-2005 generated by Flopy 3.4.1
    1 LAYERS        19 ROWS        33 COLUMNS
    1 STRESS PERIOD(S) IN SIMULATION
 MODEL TIME UNIT IS DAYS
 MODEL LENGTH UNIT IS METERS
  Confining bed flag for each layer:
   0

                     DELR =   100.000    

                     DELC =   100.000    

 TOP ELEVATION OF LAYER 1 =   10.0000    

   MODEL LAYER BOTTOM EL. =   0.00000     FOR LAYER   1


 STRESS PERIOD     LENGTH       TIME STEPS     MULTIPLIER FOR DELT    SS FLAG
 ----------------------------------------------------------------------------
        1         1.000000          1                    1.000         SS

 STEADY-STATE SIMULATION




 # BAS6 package for MODFLOW-2005 generated by Flopy 3.4.1                        
 THE FREE FORMAT OPTION HAS BEEN SELECTED



                     BOUNDARY ARRAY FOR LAYER   1
 READING ON UNIT   13 WITH FORMAT: (33I10)             

 AQUIFER HEAD WILL BE SET TO  -99.000     AT ALL NO-FLOW NODES (IBOUND=0).

             INITIAL HEAD =   100.000     FOR LAYER   1
 # OC package for MODFLOW-2005 generated by Flopy 3.4.1

 OUTPUT CONTROL IS SPECIFIED ONLY AT TIME STEPS FOR WHICH OUTPUT IS DESIRED
 COMPACT CELL-BY-CELL BUDGET FILES WILL BE WRITTEN
 AUXILIARY DATA WILL BE SAVED IN CELL-BY-CELL BUDGET FILES
 HEAD PRINT FORMAT CODE IS   0    DRAWDOWN PRINT FORMAT CODE IS   0
 HEADS WILL BE SAVED ON UNIT   51    DRAWDOWNS WILL BE SAVED ON UNIT   52

 LPF -- LAYER-PROPERTY FLOW PACKAGE, VERSION 7, 5/2/2005
         INPUT READ FROM UNIT   15
 # LPF package for MODFLOW-2005 generated by Flopy 3.4.1
 CELL-BY-CELL FLOWS WILL BE SAVED ON UNIT   53
 HEAD AT CELLS THAT CONVERT TO DRY= -1.00000E+30
 No named parameters

   LAYER FLAGS:
 LAYER       LAYTYP        LAYAVG         CHANI        LAYVKA        LAYWET
 ---------------------------------------------------------------------------
    1             0             0     1.000E+00             0             0

   INTERPRETATION OF LAYER FLAGS:
                        INTERBLOCK     HORIZONTAL    DATA IN
         LAYER TYPE   TRANSMISSIVITY   ANISOTROPY   ARRAY VKA   WETTABILITY
 LAYER      (LAYTYP)      (LAYAVG)       (CHANI)      (LAYVKA)      (LAYWET)
 ---------------------------------------------------------------------------
    1      CONFINED      HARMONIC     1.000E+00    VERTICAL K  NON-WETTABLE

 WETTING CAPABILITY IS NOT ACTIVE IN ANY LAYER



              HYD. COND. ALONG ROWS FOR LAYER   1
 READING ON UNIT   15 WITH FORMAT: (33E15.6)           

      VERTICAL HYD. COND. =  1.000000E-05 FOR LAYER   1

 WEL -- WELL PACKAGE, VERSION 7, 5/2/2005 INPUT READ FROM UNIT   20
 # WEL package for MODFLOW-2005 generated by Flopy 3.4.1
 No named parameters
 MAXIMUM OF      3 ACTIVE WELLS AT ONE TIME


     0 Well parameters

 RIV -- RIVER PACKAGE, VERSION 7, 5/2/2005 INPUT READ FROM UNIT   18
 # RIV package for MODFLOW-2005 generated by Flopy 3.4.1
 No named parameters
 MAXIMUM OF     45 ACTIVE RIVER REACHES AT ONE TIME


     0 River parameters

 RCH -- RECHARGE PACKAGE, VERSION 7, 5/2/2005 INPUT READ FROM UNIT   19
 # RCH package for MODFLOW-2005 generated by Flopy 3.4.1
 No named parameters
 OPTION 2 -- RECHARGE TO ONE SPECIFIED NODE IN EACH VERTICAL COLUMN


     0 Recharge parameters

 PCG -- CONJUGATE-GRADIENT SOLUTION PACKAGE, VERSION 7, 5/2/2005
 # PCG package for MODFLOW-2005 generated by Flopy 3.4.1
 MAXIMUM OF   1000 CALLS OF SOLUTION ROUTINE
 MAXIMUM OF     30 INTERNAL ITERATIONS PER CALL TO SOLUTION ROUTINE
 MATRIX PRECONDITIONING TYPE :    1



                                    SOLUTION BY THE CONJUGATE-GRADIENT METHOD
                                   -------------------------------------------
                    MAXIMUM NUMBER OF CALLS TO PCG ROUTINE =     1000
                        MAXIMUM ITERATIONS PER CALL TO PCG =       30
                               MATRIX PRECONDITIONING TYPE =        1
        RELAXATION FACTOR (ONLY USED WITH PRECOND. TYPE 1) =    0.80000E+00
 PARAMETER OF POLYNOMIAL PRECOND. = 2 (2) OR IS CALCULATED :        0
                         HEAD CHANGE CRITERION FOR CLOSURE =    0.10000E-04
                     RESIDUAL CHANGE CRITERION FOR CLOSURE =    0.10000E-04
            PCG HEAD AND RESIDUAL CHANGE PRINTOUT INTERVAL =      999
     PRINTING FROM SOLVER IS LIMITED(1) OR SUPPRESSED (>1) =        3
                            STEADY-STATE DAMPING PARAMETER =    0.10000E+01
                               TRANSIENT DAMPING PARAMETER =    0.10000E+01
1
                            STRESS PERIOD NO.    1, LENGTH =   1.000000    
                            -----------------------------------------------

                              NUMBER OF TIME STEPS =     1

                               MULTIPLIER FOR DELT =     1.000

                            INITIAL TIME STEP SIZE =   1.000000    

 WELL NO.  LAYER   ROW   COL   STRESS RATE         
 --------------------------------------------------
      1      1      6     16      -2000.    
      2      1      8      5      -1000.    
      3      1     10     19      -1000.    

      3 WELLS

 REACH NO.  LAYER   ROW   COL     STAGE      CONDUCTANCE     BOTTOM EL.         
 -------------------------------------------------------------------------------
      1      1      1     14       94.80           50.00           92.80    
      2      1      1     15       94.80           50.00           92.80    
      3      1      1     16       94.90           50.00           92.90    
      4      1      1     17       94.90           50.00           92.90    
      5      1      1     18       95.00           50.00           93.00    
      6      1      1     19       95.00           50.00           93.00    
      7      1      1     20       95.00           50.00           93.00    
      8      1      2     12       94.70           50.00           92.70    
      9      1      2     13       94.70           50.00           92.70    
     10      1      2     14       94.70           50.00           92.70    
     11      1      3     11       94.60           50.00           92.60    
     12      1      3     12       94.60           50.00           92.60    
     13      1      4     10       94.50           50.00           92.50    
     14      1      4     11       94.50           50.00           92.50    
     15      1      5     10       94.50           50.00           92.50    
     16      1      6      9       94.40           50.00           92.40    
     17      1      6     10       94.40           50.00           92.20    
     18      1      7      9       94.30           50.00           92.30    
     19      1      8      9       94.20           50.00           92.20    
     20      1      9      9       94.10           50.00           92.10    
     21      1     10      9       94.00           50.00           92.00    
     22      1     10     10       94.00           50.00           92.00    
     23      1     11     10       93.50           50.00           91.50    
     24      1     11     11       93.50           50.00           91.50    
     25      1     12     11       93.00           50.00           91.50    
     26      1     12     12       93.00           50.00           91.50    
     27      1     12     13       93.00           50.00           91.50    
     28      1     13     13       92.50           50.00           90.50    
     29      1     13     14       92.50           50.00           90.50    
     30      1     14     14       92.00           50.00           90.00    
     31      1     14     15       92.00           50.00           90.00    
     32      1     15     14       91.50           50.00           89.50    
     33      1     15     15       91.50           50.00           89.50    
     34      1     16     13       91.00           50.00           89.00    
     35      1     16     14       91.00           50.00           89.00    
     36      1     17     10       90.50           50.00           88.50    
     37      1     17     11       90.50           50.00           88.50    
     38      1     17     12       90.50           50.00           88.50    
     39      1     17     13       90.50           50.00           88.50    
     40      1     18      8       90.20           50.00           88.20    
     41      1     18      9       90.20           50.00           88.20    
     42      1     18     10       90.20           50.00           88.20    
     43      1     19      6       90.00           50.00           88.00    
     44      1     19      7       90.00           50.00           88.00    
     45      1     19      8       90.00           50.00           88.00    

     45 RIVER REACHES



                           RECHARGE
 READING ON UNIT   19 WITH FORMAT: (33E15.6)           



               RECHARGE LAYER INDEX
 READING ON UNIT   19 WITH FORMAT: (33I10)             

 SOLVING FOR HEAD 

 OUTPUT CONTROL FOR STRESS PERIOD    1   TIME STEP    1
    SAVE HEAD FOR ALL LAYERS
    SAVE DRAWDOWN FOR ALL LAYERS
    SAVE BUDGET
    PRINT HEAD FOR ALL LAYERS
    PRINT BUDGET
 UBDSV2 SAVING "   CONSTANT HEAD" ON UNIT  53 AT TIME STEP  1, STRESS PERIOD   1
 UBDSV1 SAVING "FLOW RIGHT FACE " ON UNIT  53 AT TIME STEP  1, STRESS PERIOD   1
 UBDSV1 SAVING "FLOW FRONT FACE " ON UNIT  53 AT TIME STEP  1, STRESS PERIOD   1
1
              HEAD IN LAYER   1 AT END OF TIME STEP   1 IN STRESS PERIOD    1
  ---------------------------------------------------------------------------

            1           2           3           4           5           6           7           8           9          10
           11          12          13          14          15          16          17          18          19          20
           21          22          23          24          25          26          27          28          29          30
           31          32          33
 ........................................................................................................................
   1   -99.00      -99.00      -99.00      -99.00      -99.00      -99.00      -99.00      -99.00      -99.00      -99.00    
       -99.00      -99.00       95.39       95.43       95.51       95.61       95.70       95.81       95.95       96.12    
        96.30       96.48       96.87       97.41       97.88       98.29       98.64       98.93       99.17       99.36    
        99.49       99.57      -99.00    
   2   -99.00      -99.00       95.09       95.10       95.11       95.12       95.14       95.16       95.18       95.20    
        95.23       95.27       95.34       95.41       95.50       95.59       95.68       95.80       95.95       96.12    
        96.31       96.50       96.92       97.46       97.92       98.33       98.68       98.97       99.21       99.39    
        99.53       99.62       99.69    
   3   -99.00       95.07       95.08       95.08       95.09       95.11       95.12       95.14       95.17       95.19    
        95.22       95.26       95.32       95.39       95.46       95.54       95.64       95.77       95.91       96.11    
        96.29       96.61       97.09       97.56       98.00       98.40       98.75       99.04       99.28       99.46    
        99.59       99.68       99.73    
   4    95.04       95.05       95.05       95.05       95.06       95.08       95.10       95.12       95.14       95.16    
        95.20       95.25       95.30       95.34       95.39       95.46       95.57       95.70       95.83       96.07    
        96.40       96.79       97.24       97.68       98.11       98.50       98.85       99.14       99.38       99.55    
        99.68       99.76       99.80    
   5    95.03       95.02       95.02       95.01       95.02       95.03       95.06       95.09       95.11       95.14    
        95.19       95.23       95.27       95.29       95.31       95.32       95.48       95.63       95.77       96.05    
        96.47       96.91       97.36       97.81       98.24       98.63       98.99       99.28       99.52       99.68    
        99.79       99.87       99.90    
   6    95.00       94.99       94.98       94.95       94.94       94.97       95.01       95.05       95.07       95.11    
        95.17       95.21       95.24       95.25       95.21       95.05       95.38       95.57       95.72       96.04    
        96.52       96.99       97.46       97.92       98.37       98.79       99.16       99.47       99.71       99.83    
        99.91       100.0       100.0    
   7    94.97       94.96       94.93       94.87       94.82       94.89       94.96       95.01       95.04       95.10    
        95.14       95.18       95.22       95.24       95.25       95.26       95.41       95.56       95.70       96.03    
        96.55       97.06       97.55       98.04       98.51       98.96       99.37       99.72       100.0       100.0    
        100.0      -99.00      -99.00    
   8    94.95       94.93       94.89       94.79       94.55       94.80       94.92       94.99       95.02       95.07    
        95.12       95.16       95.20       95.24       95.28       95.34       95.44       95.55       95.67       96.02    
        96.57       97.11       97.64       98.15       98.66       99.16       99.64       100.0      -99.00      -99.00    
       -99.00      -99.00      -99.00    
   9    94.94       94.93       94.89       94.83       94.77       94.85       94.92       94.97       95.00       95.04    
        95.09       95.14       95.19       95.24       95.30       95.37       95.45       95.53       95.62       96.00    
        96.59       97.16       97.71       98.25       98.79       99.35       100.0      -99.00      -99.00      -99.00    
       -99.00      -99.00      -99.00    
  10    94.94       94.93       94.90       94.88       94.86       94.88       94.92       94.96       94.98       95.00    
        95.05       95.10       95.16       95.23       95.30       95.37       95.45       95.51       95.49       95.97    
        96.61       97.21       97.78       98.33       98.88       99.43       100.0      -99.00      -99.00      -99.00    
       -99.00      -99.00      -99.00    
  11    94.93       94.93       94.91       94.90       94.89       94.90       94.92       94.94       94.96       94.97    
        95.00       95.06       95.12       95.20       95.29       95.38       95.47       95.56       95.64       96.04    
        96.66       97.26       97.84       98.40       98.94       99.48       100.0      -99.00      -99.00      -99.00    
       -99.00      -99.00      -99.00    
  12    94.93       94.92       94.91       94.90       94.89       94.89       94.90       94.91       94.93       94.95    
        94.97       95.01       95.07       95.16       95.26       95.37       95.49       95.60       95.73       96.11    
        96.72       97.32       97.90       98.46       99.00       99.51       100.0      -99.00      -99.00      -99.00    
       -99.00      -99.00      -99.00    
  13    94.92       94.91       94.90       94.89       94.88       94.87       94.87       94.88       94.90       94.92    
        94.95       94.98       95.02       95.10       95.23       95.36       95.50       95.63       95.77       96.16    
        96.77       97.37       97.96       98.52       99.06       99.55       100.0      -99.00      -99.00      -99.00    
       -99.00      -99.00      -99.00    
  14    94.91       94.90       94.88       94.87       94.85       94.84       94.84       94.84       94.86       94.88    
        94.91       94.95       95.00       95.06       95.18       95.35       95.50       95.65       95.80       96.19    
        96.80       97.41       98.02       98.60       99.14       99.61       100.0      -99.00      -99.00      -99.00    
       -99.00      -99.00      -99.00    
  15   -99.00       94.87       94.85       94.83       94.81       94.79       94.79       94.79       94.81       94.83    
        94.86       94.91       94.96       95.03       95.16       95.34       95.51       95.66       95.82       96.21    
        96.83       97.45       98.07       98.70       99.28       99.73       100.0      -99.00      -99.00      -99.00    
       -99.00      -99.00      -99.00    
  16   -99.00       94.84       94.82       94.79       94.76       94.74       94.73       94.73       94.74       94.76    
        94.79       94.85       94.90       95.01       95.18       95.35       95.51       95.67       95.83       96.22    
        96.83       97.45       98.10       98.83       99.53       100.0      -99.00      -99.00      -99.00      -99.00    
       -99.00      -99.00      -99.00    
  17   -99.00       94.82       94.79       94.75       94.71       94.69       94.67       94.65       94.66       94.66    
        94.71       94.78       94.88       95.04       95.20       95.36       95.52       95.67       95.83       96.21    
        96.81       97.40       98.04       98.96       100.0      -99.00      -99.00      -99.00      -99.00      -99.00    
       -99.00      -99.00      -99.00    
  18   -99.00      -99.00       94.76       94.72       94.66       94.62       94.59       94.56       94.57       94.61    
        94.70       94.78       94.90       95.05       95.20       95.36       95.52       95.68       95.83       96.21    
        96.78       97.29       97.68      -99.00      -99.00      -99.00      -99.00      -99.00      -99.00      -99.00    
       -99.00      -99.00      -99.00    
  19   -99.00      -99.00      -99.00      -99.00       94.60       94.54       94.51       94.51       94.57       94.63    
        94.69       94.74      -99.00      -99.00      -99.00      -99.00      -99.00      -99.00      -99.00      -99.00    
       -99.00      -99.00      -99.00      -99.00      -99.00      -99.00      -99.00      -99.00      -99.00      -99.00    
       -99.00      -99.00      -99.00    

 HEAD WILL BE SAVED ON UNIT   51 AT END OF TIME STEP    1, STRESS PERIOD    1

 DRAWDOWN WILL BE SAVED ON UNIT   52 AT END OF TIME STEP    1, STRESS PERIOD    1
1
  VOLUMETRIC BUDGET FOR ENTIRE MODEL AT END OF TIME STEP    1, STRESS PERIOD   1
  ------------------------------------------------------------------------------

     CUMULATIVE VOLUMES      L**3       RATES FOR THIS TIME STEP      L**3/T
     ------------------                 ------------------------

           IN:                                      IN:
           ---                                      ---
             STORAGE =           0.0000               STORAGE =           0.0000
       CONSTANT HEAD =        3878.9739         CONSTANT HEAD =        3878.9739
               WELLS =           0.0000                 WELLS =           0.0000
       RIVER LEAKAGE =           0.0000         RIVER LEAKAGE =           0.0000
            RECHARGE =        4920.0000              RECHARGE =        4920.0000

            TOTAL IN =        8798.9736              TOTAL IN =        8798.9736

          OUT:                                     OUT:
          ----                                     ----
             STORAGE =           0.0000               STORAGE =           0.0000
       CONSTANT HEAD =           0.0000         CONSTANT HEAD =           0.0000
               WELLS =        4000.0000                 WELLS =        4000.0000
       RIVER LEAKAGE =        4798.9741         RIVER LEAKAGE =        4798.9741
            RECHARGE =           0.0000              RECHARGE =           0.0000

           TOTAL OUT =        8798.9746             TOTAL OUT =        8798.9746

            IN - OUT =      -9.7656E-04              IN - OUT =      -9.7656E-04

 PERCENT DISCREPANCY =          -0.00     PERCENT DISCREPANCY =          -0.00






         TIME SUMMARY AT END OF TIME STEP    1 IN STRESS PERIOD    1
                    SECONDS     MINUTES      HOURS       DAYS        YEARS
                    -----------------------------------------------------------
   TIME STEP LENGTH  86400.      1440.0      24.000      1.0000     2.73785E-03
 STRESS PERIOD TIME  86400.      1440.0      24.000      1.0000     2.73785E-03
         TOTAL TIME  86400.      1440.0      24.000      1.0000     2.73785E-03
1

 Run end date and time (yyyy/mm/dd hh:mm:ss): 2023/08/08 14:15:48
 Elapsed run time:  0.012 Seconds

